version 3
run General-0-20240417-13:40:30-55944
attr configname General
attr datetime 20240417-13:40:30
attr datetimef 20240417-134030
attr experiment General
attr inifile omnetpp.ini
attr iterationvars ""
attr iterationvarsd ""
attr iterationvarsf ""
attr measurement ""
attr network wGptpPcapRecorder
attr processid 55944
attr repetition 0
attr replication #0
attr resultdir results
attr runnumber 0
attr seedset 0
config debug-on-errors true
config image-path ../../../inet4.5/images
config network wGptpPcapRecorder
config total-stack 7MiB
config *.host1.numWlanInterfaces 1
config *.host2.numWlanInterfaces 1
config *.host*.wlan[*].typename Ieee80211Interface
config *.host*.wlan[*].mgmt.typename Ieee80211MgmtAdhoc
config *.host*.wlan[*].agent.typename ""
config *.host1.gptp.masterPorts "[\"wlan0\"]"
config *.host2.gptp.slavePort "\"wlan0\""
config **.gptp.*.vector-recording true
config *.host1.numPcapRecorders 1
config *.host2.numPcapRecorders 1
config **.pcapRecorder[*].alwaysFlush true
config **.crcMode "\"computed\""
config **.fcsMode "\"computed\""
config **.host1.clock.typename OscillatorBasedClock
config **.host1.clock.oscillator.typename RandomDriftOscillator
config **.oscillator.changeInterval 12.5ms
config **.oscillator.driftRate "uniform(-100ppm, 100ppm)"
config **.oscillator.driftRateChange "uniform(-1ppm, 1ppm)"
config **.oscillator.driftRateChangeUpperLimit 100ppm
config **.oscillator.driftRateChangeLowerLimit -100ppm
config **.referenceClock "\"host1.clock\""
config *.host2.numApps 1
config *.host2.app[*].typename TcpEchoApp
config *.host2.app[0].localPort 1000
config *.host2.app[0].echoFactor 2.0
config *.host2.app[0].echoDelay 0s

par wGptpPcapRecorder.radioMedium.propagation typename "\"inet.physicallayer.wireless.common.propagation.ConstantSpeedPropagation\""
par wGptpPcapRecorder.radioMedium.propagation propagationSpeed 2.99792e+08mps
attr unit mps
par wGptpPcapRecorder.radioMedium.propagation ignoreMovementDuringTransmission true
par wGptpPcapRecorder.radioMedium.propagation ignoreMovementDuringPropagation true
par wGptpPcapRecorder.radioMedium.propagation ignoreMovementDuringReception true
scalar wGptpPcapRecorder.radioMedium.propagation "Arrival computation count" 1414
par wGptpPcapRecorder.radioMedium.analogModel typename "\"inet.physicallayer.wireless.common.analogmodel.packetlevel.ScalarAnalogModel\""
par wGptpPcapRecorder.radioMedium.analogModel ignorePartialInterference false
par wGptpPcapRecorder.radioMedium.backgroundNoise typename "\"inet.physicallayer.wireless.common.backgroundnoise.IsotropicScalarBackgroundNoise\""
par wGptpPcapRecorder.radioMedium.backgroundNoise power -110dBm
attr unit dBm
par wGptpPcapRecorder.radioMedium.backgroundNoise bandwidth "nan Hz"
attr unit Hz
par wGptpPcapRecorder.radioMedium.pathLoss typename "\"inet.physicallayer.wireless.common.pathloss.FreeSpacePathLoss\""
par wGptpPcapRecorder.radioMedium.pathLoss alpha 2
par wGptpPcapRecorder.radioMedium.pathLoss systemLoss 0dB
attr unit dB
par wGptpPcapRecorder.radioMedium.mediumLimitCache typename "\"inet.physicallayer.wireless.common.medium.MediumLimitCache\""
par wGptpPcapRecorder.radioMedium.mediumLimitCache centerFrequency 2.4e+09Hz
attr unit Hz
par wGptpPcapRecorder.radioMedium.mediumLimitCache maxSpeed "nan mps"
attr unit mps
par wGptpPcapRecorder.radioMedium.mediumLimitCache maxTransmissionPower "nan W"
attr unit W
par wGptpPcapRecorder.radioMedium.mediumLimitCache minInterferencePower -110dBm
attr unit dBm
par wGptpPcapRecorder.radioMedium.mediumLimitCache minReceptionPower -85dBm
attr unit dBm
par wGptpPcapRecorder.radioMedium.mediumLimitCache maxAntennaGain 0dB
attr unit dB
par wGptpPcapRecorder.radioMedium.mediumLimitCache minInterferenceTime 1e-12s
attr unit s
par wGptpPcapRecorder.radioMedium.mediumLimitCache maxTransmissionDuration 0.01s
attr unit s
par wGptpPcapRecorder.radioMedium.mediumLimitCache maxCommunicationRange "nan m"
attr unit m
par wGptpPcapRecorder.radioMedium.mediumLimitCache maxInterferenceRange "nan m"
attr unit m
par wGptpPcapRecorder.radioMedium.communicationCache typename "\"inet.physicallayer.wireless.common.communicationcache.VectorCommunicationCache\""
par wGptpPcapRecorder.radioMedium typename "\"inet.physicallayer.wireless.ieee80211.packetlevel.Ieee80211ScalarRadioMedium\""
par wGptpPcapRecorder.radioMedium physicalEnvironmentModule "\"physicalEnvironment\""
par wGptpPcapRecorder.radioMedium signalAnalogRepresentation "\"scalar\""
attr enum unitDisk,scalar,dimensional
par wGptpPcapRecorder.radioMedium rangeFilter "\"\""
par wGptpPcapRecorder.radioMedium radioModeFilter false
par wGptpPcapRecorder.radioMedium listeningFilter false
par wGptpPcapRecorder.radioMedium macAddressFilter false
par wGptpPcapRecorder.radioMedium recordTransmissionLog false
par wGptpPcapRecorder.radioMedium recordReceptionLog false
scalar wGptpPcapRecorder.radioMedium "transmission count" 1414
scalar wGptpPcapRecorder.radioMedium "signal send count" 1414
scalar wGptpPcapRecorder.radioMedium "reception computation count" 1414
scalar wGptpPcapRecorder.radioMedium "interference computation count" 5660
scalar wGptpPcapRecorder.radioMedium "reception decision computation count" 1414
scalar wGptpPcapRecorder.radioMedium "listening decision computation count" 2832
scalar wGptpPcapRecorder.radioMedium "reception cache hit" 85.714285714286
attr unit %
scalar wGptpPcapRecorder.radioMedium "interference cache hit" 66.666666666667
attr unit %
scalar wGptpPcapRecorder.radioMedium "noise cache hit" 0
attr unit %
scalar wGptpPcapRecorder.radioMedium "snir cache hit" 50
attr unit %
scalar wGptpPcapRecorder.radioMedium "reception decision cache hit" 50
attr unit %
scalar wGptpPcapRecorder.radioMedium "reception result cache hit" 0
attr unit %
par wGptpPcapRecorder.host1.radioIn[0].channel typename "\"ned.IdealChannel\""
par wGptpPcapRecorder.host1.clock.oscillator typename "\"inet.clock.oscillator.RandomDriftOscillator\""
par wGptpPcapRecorder.host1.clock.oscillator displayStringTextFormat "\"%c (%n + %d)\""
par wGptpPcapRecorder.host1.clock.oscillator nominalTickLength 0s
attr unit s
par wGptpPcapRecorder.host1.clock.oscillator tickOffset 0s
attr unit s
par wGptpPcapRecorder.host1.clock.oscillator initialDriftRate 0ppm
attr unit ppm
par wGptpPcapRecorder.host1.clock.oscillator changeInterval 0.0125s
attr unit s
par wGptpPcapRecorder.host1.clock.oscillator driftRateChange "uniform(-1ppm, 1ppm)"
attr unit ppm
par wGptpPcapRecorder.host1.clock.oscillator driftRateChangeLowerLimit -100ppm
attr unit ppm
par wGptpPcapRecorder.host1.clock.oscillator driftRateChangeUpperLimit 100ppm
attr unit ppm
par wGptpPcapRecorder.host1.clock typename "\"inet.clock.model.OscillatorBasedClock\""
par wGptpPcapRecorder.host1.clock displayStringTextFormat "\"%t (%c)\""
par wGptpPcapRecorder.host1.clock referenceClock "\"host1.clock\""
par wGptpPcapRecorder.host1.clock emitClockTimeInterval 0s
attr unit s
par wGptpPcapRecorder.host1.clock initialClockTime 0s
attr unit s
par wGptpPcapRecorder.host1.clock roundingMode "\"up\""
attr enum down,up,closer,none
par wGptpPcapRecorder.host1.mobility typename "\"inet.mobility.static.StationaryMobility\""
par wGptpPcapRecorder.host1.mobility subjectModule "\"^\""
par wGptpPcapRecorder.host1.mobility coordinateSystemModule "\"\""
par wGptpPcapRecorder.host1.mobility displayStringTextFormat "\"p: %p\\nv: %v\""
attr mutable ""
par wGptpPcapRecorder.host1.mobility updateDisplayString true
par wGptpPcapRecorder.host1.mobility constraintAreaMinX "-inf m"
attr unit m
par wGptpPcapRecorder.host1.mobility constraintAreaMinY "-inf m"
attr unit m
par wGptpPcapRecorder.host1.mobility constraintAreaMinZ "-inf m"
attr unit m
par wGptpPcapRecorder.host1.mobility constraintAreaMaxX "inf m"
attr unit m
par wGptpPcapRecorder.host1.mobility constraintAreaMaxY "inf m"
attr unit m
par wGptpPcapRecorder.host1.mobility constraintAreaMaxZ "inf m"
attr unit m
par wGptpPcapRecorder.host1.mobility initialX "nan m"
attr unit m
par wGptpPcapRecorder.host1.mobility initialY "nan m"
attr unit m
par wGptpPcapRecorder.host1.mobility initialZ 0m
attr unit m
par wGptpPcapRecorder.host1.mobility initialLatitude "nan deg"
attr unit deg
par wGptpPcapRecorder.host1.mobility initialLongitude "nan deg"
attr unit deg
par wGptpPcapRecorder.host1.mobility initialAltitude 0m
attr unit m
par wGptpPcapRecorder.host1.mobility initialHeading 0deg
attr unit deg
par wGptpPcapRecorder.host1.mobility initialElevation 0deg
attr unit deg
par wGptpPcapRecorder.host1.mobility initialBank 0deg
attr unit deg
par wGptpPcapRecorder.host1.mobility initFromDisplayString true
par wGptpPcapRecorder.host1.mobility updateFromDisplayString true
par wGptpPcapRecorder.host1.pcapRecorder[0] typename "\"inet.common.packet.recorder.PcapRecorder\""
par wGptpPcapRecorder.host1.pcapRecorder[0] verbose true
par wGptpPcapRecorder.host1.pcapRecorder[0] pcapFile "\"results/General-wGptpPcapRecorder.host1.pcap\""
par wGptpPcapRecorder.host1.pcapRecorder[0] fileFormat "\"pcapng\""
attr enum pcap,pcapng
par wGptpPcapRecorder.host1.pcapRecorder[0] snaplen 65535
par wGptpPcapRecorder.host1.pcapRecorder[0] dumpBadFrames true
par wGptpPcapRecorder.host1.pcapRecorder[0] moduleNamePatterns "\"wlan[*] eth[*] ppp[*]\""
par wGptpPcapRecorder.host1.pcapRecorder[0] sendingSignalNames "\"packetSentToLower\""
par wGptpPcapRecorder.host1.pcapRecorder[0] receivingSignalNames "\"packetReceivedFromLower\""
par wGptpPcapRecorder.host1.pcapRecorder[0] dumpProtocols "\"ethernetmac ppp ieee80211mac\""
par wGptpPcapRecorder.host1.pcapRecorder[0] packetFilter "(omnetpp::cValueHolder)holder: \"*\""
par wGptpPcapRecorder.host1.pcapRecorder[0] helpers "\"\""
par wGptpPcapRecorder.host1.pcapRecorder[0] alwaysFlush true
par wGptpPcapRecorder.host1.pcapRecorder[0] displayStringTextFormat "\"rec: %n pks\""
par wGptpPcapRecorder.host1.interfaceTable typename "\"inet.networklayer.common.InterfaceTable\""
par wGptpPcapRecorder.host1.interfaceTable displayAddresses false
par wGptpPcapRecorder.host1.cb typename "\"inet.common.MessageDispatcher\""
par wGptpPcapRecorder.host1.cb displayStringTextFormat "\"processed %p pk (%l)\""
par wGptpPcapRecorder.host1.cb forwardServiceRegistration true
par wGptpPcapRecorder.host1.cb forwardProtocolRegistration true
par wGptpPcapRecorder.host1.bl typename "\"inet.common.MessageDispatcher\""
par wGptpPcapRecorder.host1.bl displayStringTextFormat "\"processed %p pk (%l)\""
par wGptpPcapRecorder.host1.bl forwardServiceRegistration true
par wGptpPcapRecorder.host1.bl forwardProtocolRegistration true
par wGptpPcapRecorder.host1.li typename "\"inet.common.MessageDispatcher\""
par wGptpPcapRecorder.host1.li displayStringTextFormat "\"processed %p pk (%l)\""
par wGptpPcapRecorder.host1.li forwardServiceRegistration true
par wGptpPcapRecorder.host1.li forwardProtocolRegistration true
par wGptpPcapRecorder.host1.lo[0].upperLayerIn.channel typename "\"ned.IdealChannel\""
par wGptpPcapRecorder.host1.lo[0].lo.upperLayerOut.channel typename "\"ned.IdealChannel\""
par wGptpPcapRecorder.host1.lo[0].lo typename "\"inet.linklayer.loopback.Loopback\""
par wGptpPcapRecorder.host1.lo[0].lo interfaceTableModule "\"wGptpPcapRecorder.host1.interfaceTable\""
par wGptpPcapRecorder.host1.lo[0].lo mtu 4470B
attr unit B
scalar wGptpPcapRecorder.host1.lo[0].lo rcvdPkFromHl:count 0
attr interpolationmode none
attr recordingmode count
attr source packetReceivedFromUpper
attr title "packets received from higher layer, count"
scalar wGptpPcapRecorder.host1.lo[0].lo rcvdPkFromHl:sum(packetBytes) 0
attr interpolationmode none
attr recordingmode sum(packetBytes)
attr source packetReceivedFromUpper
attr title "packets received from higher layer, sum(packetBytes)"
scalar wGptpPcapRecorder.host1.lo[0].lo passedUpPk:count 0
attr interpolationmode none
attr recordingmode count
attr source packetSentToUpper
attr title "packets passed to higher layer, count"
scalar wGptpPcapRecorder.host1.lo[0].lo passedUpPk:sum(packetBytes) 0
attr interpolationmode none
attr recordingmode sum(packetBytes)
attr source packetSentToUpper
attr title "packets passed to higher layer, sum(packetBytes)"
par wGptpPcapRecorder.host1.lo[0] typename "\"inet.linklayer.loopback.LoopbackInterface\""
par wGptpPcapRecorder.host1.lo[0] displayStringTextFormat "\"%a (%i)\\n%m\""
par wGptpPcapRecorder.host1.lo[0] recordPcap false
par wGptpPcapRecorder.host1.lo[0] numPcapRecorders 0
par wGptpPcapRecorder.host1.lo[0] interfaceTableModule "\"wGptpPcapRecorder.host1.interfaceTable\""
scalar wGptpPcapRecorder.host1.lo[0] packetDropInterfaceDown:count 0
attr interpolationmode none
attr recordingmode count
attr source packetDropReasonIsInterfaceDown(packetDropped)
attr title "packet drops: interface down, count"
scalar wGptpPcapRecorder.host1.lo[0] packetDropInterfaceDown:sum(packetBytes) 0
attr interpolationmode none
attr recordingmode sum(packetBytes)
attr source packetDropReasonIsInterfaceDown(packetDropped)
attr title "packet drops: interface down, sum(packetBytes)"
scalar wGptpPcapRecorder.host1.lo[0] packetDropNoCarrier:count 0
attr interpolationmode none
attr recordingmode count
attr source packetDropReasonIsNoCarrier(packetDropped)
attr title "packet drops: no carrier, count"
scalar wGptpPcapRecorder.host1.lo[0] packetDropNoCarrier:sum(packetBytes) 0
attr interpolationmode none
attr recordingmode sum(packetBytes)
attr source packetDropReasonIsNoCarrier(packetDropped)
attr title "packet drops: no carrier, sum(packetBytes)"
par wGptpPcapRecorder.host1.wlan[0].radioIn.channel typename "\"ned.IdealChannel\""
par wGptpPcapRecorder.host1.wlan[0].llc.upperLayerOut.channel typename "\"ned.IdealChannel\""
par wGptpPcapRecorder.host1.wlan[0].upperLayerIn.channel typename "\"ned.IdealChannel\""
par wGptpPcapRecorder.host1.wlan[0].mib typename "\"inet.linklayer.ieee80211.mib.Ieee80211Mib\""
par wGptpPcapRecorder.host1.wlan[0].llc typename "\"inet.linklayer.ieee80211.llc.Ieee80211LlcLpd\""
par wGptpPcapRecorder.host1.wlan[0].llc registerProtocol false
par wGptpPcapRecorder.host1.wlan[0].mgmt typename "\"inet.linklayer.ieee80211.mgmt.Ieee80211MgmtAdhoc\""
par wGptpPcapRecorder.host1.wlan[0].mgmt mibModule "\"wGptpPcapRecorder.host1.wlan[0].mib\""
par wGptpPcapRecorder.host1.wlan[0].mgmt macModule "\"wGptpPcapRecorder.host1.wlan[0].mac\""
par wGptpPcapRecorder.host1.wlan[0].mgmt interfaceTableModule "\"wGptpPcapRecorder.host1.interfaceTable\""
par wGptpPcapRecorder.host1.wlan[0].mac.dcf.channelAccess.pendingQueue typename "\"inet.linklayer.ieee80211.mac.queue.PendingQueue\""
par wGptpPcapRecorder.host1.wlan[0].mac.dcf.channelAccess.pendingQueue displayStringTextFormat "\"contains %p pk (%l) pushed %u\\npulled %o removed %r dropped %d\""
par wGptpPcapRecorder.host1.wlan[0].mac.dcf.channelAccess.pendingQueue packetCapacity 100
par wGptpPcapRecorder.host1.wlan[0].mac.dcf.channelAccess.pendingQueue dataCapacity -1b
attr unit b
par wGptpPcapRecorder.host1.wlan[0].mac.dcf.channelAccess.pendingQueue dropperClass "\"inet::queueing::PacketAtCollectionEndDropper\""
par wGptpPcapRecorder.host1.wlan[0].mac.dcf.channelAccess.pendingQueue comparatorClass "\"inet::ieee80211::MgmtOverDataComparator\""
par wGptpPcapRecorder.host1.wlan[0].mac.dcf.channelAccess.pendingQueue bufferModule "\"\""
scalar wGptpPcapRecorder.host1.wlan[0].mac.dcf.channelAccess.pendingQueue queueLength:last 1
attr autoWarmupFilter false
attr interpolationmode sample-hold
attr recordingmode last
attr source "warmup(atomic(constant0(packetPushEnded) + count(packetPushStarted) - count(packetPulled) - count(packetRemoved) - count(packetDropped)))"
attr title "queue length, last"
attr unit pk
scalar wGptpPcapRecorder.host1.wlan[0].mac.dcf.channelAccess.pendingQueue queueLength:max 2
attr autoWarmupFilter false
attr interpolationmode sample-hold
attr recordingmode max
attr source "warmup(atomic(constant0(packetPushEnded) + count(packetPushStarted) - count(packetPulled) - count(packetRemoved) - count(packetDropped)))"
attr title "queue length, max"
attr unit pk
scalar wGptpPcapRecorder.host1.wlan[0].mac.dcf.channelAccess.pendingQueue queueLength:timeavg 0.003731244535462
attr autoWarmupFilter false
attr interpolationmode sample-hold
attr recordingmode timeavg
attr source "warmup(atomic(constant0(packetPushEnded) + count(packetPushStarted) - count(packetPulled) - count(packetRemoved) - count(packetDropped)))"
attr title "queue length, timeavg"
attr unit pk
scalar wGptpPcapRecorder.host1.wlan[0].mac.dcf.channelAccess.pendingQueue queueBitLength:last 896
attr autoWarmupFilter false
attr interpolationmode sample-hold
attr recordingmode last
attr source "warmup(atomic(constant0(packetPushEnded) + sum(packetLength(packetPushStarted)) - sum(packetLength(packetPulled)) - sum(packetLength(packetRemoved)) - sum(packetLength(packetDropped))))"
attr title "queue bit length, last"
attr unit b
scalar wGptpPcapRecorder.host1.wlan[0].mac.dcf.channelAccess.pendingQueue queueBitLength:max 1616
attr autoWarmupFilter false
attr interpolationmode sample-hold
attr recordingmode max
attr source "warmup(atomic(constant0(packetPushEnded) + sum(packetLength(packetPushStarted)) - sum(packetLength(packetPulled)) - sum(packetLength(packetRemoved)) - sum(packetLength(packetDropped))))"
attr title "queue bit length, max"
attr unit b
scalar wGptpPcapRecorder.host1.wlan[0].mac.dcf.channelAccess.pendingQueue queueBitLength:timeavg 3.198946254396
attr autoWarmupFilter false
attr interpolationmode sample-hold
attr recordingmode timeavg
attr source "warmup(atomic(constant0(packetPushEnded) + sum(packetLength(packetPushStarted)) - sum(packetLength(packetPulled)) - sum(packetLength(packetRemoved)) - sum(packetLength(packetDropped))))"
attr title "queue bit length, timeavg"
attr unit b
statistic wGptpPcapRecorder.host1.wlan[0].mac.dcf.channelAccess.pendingQueue queueingTime:histogram
field count 1339
field mean 0.00020725079612547
field stddev 0.00022868440824181
field min 0
field max 0.000740668512
field sum 0.277508816012
field sqrsum 0.00012748671842087
attr interpolationmode none
attr recordingmode histogram
attr source queueingTime(packetPulled)
attr title "queueing times"
attr unit s
bin	-inf	0
bin	0	577
bin	1e-05	0
bin	2e-05	0
bin	3e-05	0
bin	4e-05	28
bin	5e-05	0
bin	6e-05	17
bin	7e-05	3
bin	8e-05	15
bin	9e-05	0
bin	0.0001	0
bin	0.00011	17
bin	0.00012	26
bin	0.00013	0
bin	0.00014	29
bin	0.00015	0
bin	0.00016	29
bin	0.00017	0
bin	0.00018	22
bin	0.00019	0
bin	0.0002	3
bin	0.00021	22
bin	0.00022	5
bin	0.00023	20
bin	0.00024	6
bin	0.00025	20
bin	0.00026	2
bin	0.00027	28
bin	0.00028	5
bin	0.00029	20
bin	0.0003	1
bin	0.00031	13
bin	0.00032	22
bin	0.00033	0
bin	0.00034	21
bin	0.00035	1
bin	0.00036	19
bin	0.00037	0
bin	0.00038	28
bin	0.00039	0
bin	0.0004	26
bin	0.00041	0
bin	0.00042	24
bin	0.00043	1
bin	0.00044	20
bin	0.00045	0
bin	0.00046	18
bin	0.00047	0
bin	0.00048	19
bin	0.00049	0
bin	0.0005	3
bin	0.00051	21
bin	0.00052	26
bin	0.00053	0
bin	0.00054	3
bin	0.00055	24
bin	0.00056	20
bin	0.00057	0
bin	0.00058	3
bin	0.00059	26
bin	0.0006	28
bin	0.00061	1
bin	0.00062	4
bin	0.00063	24
bin	0.00064	31
bin	0.00065	0
bin	0.00066	0
bin	0.00067	17
bin	0.00068	0
bin	0.00069	0
bin	0.0007	0
bin	0.00071	0
bin	0.00072	0
bin	0.00073	0
bin	0.00074	1
bin	0.00075	0
bin	0.00076	0
bin	0.00077	0
bin	0.00078	0
bin	0.00079	0
bin	0.0008	0
bin	0.00081	0
bin	0.00082	0
bin	0.00083	0
bin	0.00084	0
scalar wGptpPcapRecorder.host1.wlan[0].mac.dcf.channelAccess.pendingQueue outgoingPackets:count 1339
attr recordingmode count
attr source packetPulled
attr title "outgoing packets, count"
attr unit pk
scalar wGptpPcapRecorder.host1.wlan[0].mac.dcf.channelAccess.pendingQueue outgoingPacketLengths:sum 1021024
attr interpolationmode none
attr recordingmode sum
attr source packetLength(packetPulled)
attr title "outgoing packet lengths, sum"
attr unit b
statistic wGptpPcapRecorder.host1.wlan[0].mac.dcf.channelAccess.pendingQueue outgoingPacketLengths:histogram
field count 1339
field mean 762.52725914862
field stddev 121.60508430338
field min 640
field max 896
field sum 1021024
field sqrsum 798344704
attr interpolationmode none
attr recordingmode histogram
attr source packetLength(packetPulled)
attr title "outgoing packet lengths"
attr unit b
bin	-inf	0
bin	575	0
bin	580	0
bin	585	0
bin	590	0
bin	595	0
bin	600	0
bin	605	0
bin	610	0
bin	615	0
bin	620	0
bin	625	0
bin	630	0
bin	635	0
bin	640	595
bin	645	0
bin	650	0
bin	655	0
bin	660	0
bin	665	0
bin	670	0
bin	675	0
bin	680	0
bin	685	0
bin	690	0
bin	695	0
bin	700	0
bin	705	0
bin	710	0
bin	715	0
bin	720	150
bin	725	0
bin	730	0
bin	735	0
bin	740	0
bin	745	0
bin	750	0
bin	755	0
bin	760	0
bin	765	0
bin	770	0
bin	775	0
bin	780	0
bin	785	0
bin	790	0
bin	795	0
bin	800	0
bin	805	0
bin	810	0
bin	815	0
bin	820	0
bin	825	0
bin	830	0
bin	835	0
bin	840	0
bin	845	0
bin	850	0
bin	855	0
bin	860	0
bin	865	0
bin	870	0
bin	875	0
bin	880	0
bin	885	0
bin	890	0
bin	895	594
bin	900	0
bin	905	0
bin	910	0
bin	915	0
bin	920	0
bin	925	0
bin	930	0
bin	935	0
bin	940	0
bin	945	0
bin	950	0
bin	955	0
bin	960	0
statistic wGptpPcapRecorder.host1.wlan[0].mac.dcf.channelAccess.pendingQueue flowQueueingTime:histogram
field count 0
field mean -nan
field stddev -nan
field min -nan
field max -nan
field sum 0
field sqrsum 0
attr interpolationmode none
attr recordingmode histogram
attr source queueingTime(demuxFlow(packetPulled))
attr title "flow queueing times"
attr unit s
bin	-inf	0
bin	0	0
bin	1	0
scalar wGptpPcapRecorder.host1.wlan[0].mac.dcf.channelAccess.pendingQueue incomingPackets:count 1340
attr recordingmode count
attr source packetPushStarted
attr title "incoming packets, count"
attr unit pk
scalar wGptpPcapRecorder.host1.wlan[0].mac.dcf.channelAccess.pendingQueue incomingPacketLengths:sum 1021920
attr interpolationmode none
attr recordingmode sum
attr source packetLength(packetPushStarted)
attr title "incoming packet lengths, sum"
attr unit b
statistic wGptpPcapRecorder.host1.wlan[0].mac.dcf.channelAccess.pendingQueue incomingPacketLengths:histogram
field count 1340
field mean 762.62686567164
field stddev 121.61433868295
field min 640
field max 896
field sum 1021920
field sqrsum 799147520
attr interpolationmode none
attr recordingmode histogram
attr source packetLength(packetPushStarted)
attr title "incoming packet lengths"
attr unit b
bin	-inf	0
bin	575	0
bin	580	0
bin	585	0
bin	590	0
bin	595	0
bin	600	0
bin	605	0
bin	610	0
bin	615	0
bin	620	0
bin	625	0
bin	630	0
bin	635	0
bin	640	595
bin	645	0
bin	650	0
bin	655	0
bin	660	0
bin	665	0
bin	670	0
bin	675	0
bin	680	0
bin	685	0
bin	690	0
bin	695	0
bin	700	0
bin	705	0
bin	710	0
bin	715	0
bin	720	150
bin	725	0
bin	730	0
bin	735	0
bin	740	0
bin	745	0
bin	750	0
bin	755	0
bin	760	0
bin	765	0
bin	770	0
bin	775	0
bin	780	0
bin	785	0
bin	790	0
bin	795	0
bin	800	0
bin	805	0
bin	810	0
bin	815	0
bin	820	0
bin	825	0
bin	830	0
bin	835	0
bin	840	0
bin	845	0
bin	850	0
bin	855	0
bin	860	0
bin	865	0
bin	870	0
bin	875	0
bin	880	0
bin	885	0
bin	890	0
bin	895	595
bin	900	0
bin	905	0
bin	910	0
bin	915	0
bin	920	0
bin	925	0
bin	930	0
bin	935	0
bin	940	0
bin	945	0
bin	950	0
bin	955	0
bin	960	0
scalar wGptpPcapRecorder.host1.wlan[0].mac.dcf.channelAccess.pendingQueue droppedPacketsQueueOverflow:count 0
attr interpolationmode none
attr recordingmode count
attr source packetDropReasonIsQueueOverflow(packetDropped)
attr title "dropped packets: queue overflow, count"
attr unit pk
scalar wGptpPcapRecorder.host1.wlan[0].mac.dcf.channelAccess.pendingQueue droppedPacketLengthsQueueOverflow:sum 0
attr interpolationmode none
attr recordingmode sum
attr source packetLength(packetDropReasonIsQueueOverflow(packetDropped))
attr title "dropped packet lengths: queue overflow, sum"
attr unit b
par wGptpPcapRecorder.host1.wlan[0].mac.dcf.channelAccess.inProgressFrames typename "\"inet.linklayer.ieee80211.mac.queue.InProgressFrames\""
par wGptpPcapRecorder.host1.wlan[0].mac.dcf.channelAccess.inProgressFrames pendingQueueModule "\"^.pendingQueue\""
par wGptpPcapRecorder.host1.wlan[0].mac.dcf.channelAccess.inProgressFrames originatorMacDataServiceModule "\"^.^.originatorMacDataService\""
par wGptpPcapRecorder.host1.wlan[0].mac.dcf.channelAccess.inProgressFrames ackHandlerModule "\"^.^.ackHandler\""
statistic wGptpPcapRecorder.host1.wlan[0].mac.dcf.channelAccess.inProgressFrames queueingTime:histogram
field count 1339
field mean 7.0675130694547e-05
field stddev 7.5250799805316e-05
field min 5.4e-05
field max 0.000794
field sum 0.094633999999998
field sqrsum 1.426494e-05
attr interpolationmode none
attr recordingmode histogram
attr source queueingTime(packetDequeued)
attr title "queueing times"
bin	-inf	0
bin	0	0
bin	2e-05	0
bin	4e-05	721
bin	6e-05	585
bin	8e-05	0
bin	0.0001	0
bin	0.00012	0
bin	0.00014	0
bin	0.00016	2
bin	0.00018	0
bin	0.0002	1
bin	0.00022	1
bin	0.00024	1
bin	0.00026	0
bin	0.00028	1
bin	0.0003	1
bin	0.00032	2
bin	0.00034	1
bin	0.00036	1
bin	0.00038	0
bin	0.0004	1
bin	0.00042	1
bin	0.00044	1
bin	0.00046	1
bin	0.00048	1
bin	0.0005	2
bin	0.00052	0
bin	0.00054	1
bin	0.00056	0
bin	0.00058	1
bin	0.0006	1
bin	0.00062	0
bin	0.00064	2
bin	0.00066	1
bin	0.00068	0
bin	0.0007	4
bin	0.00072	1
bin	0.00074	2
bin	0.00076	0
bin	0.00078	2
bin	0.0008	0
bin	0.00082	0
bin	0.00084	0
bin	0.00086	0
bin	0.00088	0
bin	0.0009	0
bin	0.00092	0
bin	0.00094	0
bin	0.00096	0
bin	0.00098	0
scalar wGptpPcapRecorder.host1.wlan[0].mac.dcf.channelAccess.inProgressFrames queueLength:max 2
attr autoWarmupFilter false
attr interpolationmode sample-hold
attr recordingmode max
attr source "warmup(count(packetEnqueued) - count(packetDequeued))"
attr title "queue length, max"
scalar wGptpPcapRecorder.host1.wlan[0].mac.dcf.channelAccess.inProgressFrames queueLength:timeavg 0.0012723952440223
attr autoWarmupFilter false
attr interpolationmode sample-hold
attr recordingmode timeavg
attr source "warmup(count(packetEnqueued) - count(packetDequeued))"
attr title "queue length, timeavg"
par wGptpPcapRecorder.host1.wlan[0].mac.dcf.channelAccess.contention typename "\"inet.linklayer.ieee80211.mac.contention.Contention\""
par wGptpPcapRecorder.host1.wlan[0].mac.dcf.channelAccess.contention initialChannelBusy true
par wGptpPcapRecorder.host1.wlan[0].mac.dcf.channelAccess.contention backoffOptimization true
scalar wGptpPcapRecorder.host1.wlan[0].mac.dcf.channelAccess.contention channelAccessGranted:count 1339
attr recordingmode count
attr title "channel access granted, count"
scalar wGptpPcapRecorder.host1.wlan[0].mac.dcf.channelAccess.contention stateChanged:count 11016
attr enum IDLE,DEFER,IFS_AND_BACKOFF
attr interpolationmode none
attr recordingmode count
attr title "contention state changed, count"
attr type enum
par wGptpPcapRecorder.host1.wlan[0].mac.dcf.channelAccess typename "\"inet.linklayer.ieee80211.mac.channelaccess.Dcaf\""
par wGptpPcapRecorder.host1.wlan[0].mac.dcf.channelAccess difsn -1
par wGptpPcapRecorder.host1.wlan[0].mac.dcf.channelAccess cwMin -1
par wGptpPcapRecorder.host1.wlan[0].mac.dcf.channelAccess cwMax -1
par wGptpPcapRecorder.host1.wlan[0].mac.dcf.channelAccess rxModule "\"^.^.rx\""
scalar wGptpPcapRecorder.host1.wlan[0].mac.dcf.channelAccess channelOwnershipChanged:count 2678
attr interpolationmode sample-hold
attr recordingmode count
attr title "channel ownership, count"
par wGptpPcapRecorder.host1.wlan[0].mac.dcf.originatorMacDataService.fragmentationPolicy typename "\"inet.linklayer.ieee80211.mac.fragmentation.BasicFragmentationPolicy\""
par wGptpPcapRecorder.host1.wlan[0].mac.dcf.originatorMacDataService.fragmentationPolicy fragmentationThreshold 1500B
attr unit B
par wGptpPcapRecorder.host1.wlan[0].mac.dcf.originatorMacDataService typename "\"inet.linklayer.ieee80211.mac.originator.OriginatorMacDataService\""
scalar wGptpPcapRecorder.host1.wlan[0].mac.dcf.originatorMacDataService packetAggregated:count 0
attr recordingmode count
attr title "packets aggregated, count"
scalar wGptpPcapRecorder.host1.wlan[0].mac.dcf.originatorMacDataService packetFragmented:count 0
attr recordingmode count
attr title "packets fragmented, count"
par wGptpPcapRecorder.host1.wlan[0].mac.dcf.recipientMacDataService typename "\"inet.linklayer.ieee80211.mac.recipient.RecipientMacDataService\""
scalar wGptpPcapRecorder.host1.wlan[0].mac.dcf.recipientMacDataService packetDeaggregated:count 0
attr recordingmode count
attr title "packets deaggregated, count"
scalar wGptpPcapRecorder.host1.wlan[0].mac.dcf.recipientMacDataService packetDefragmented:count 75
attr recordingmode count
attr title "packets defragmented, count"
scalar wGptpPcapRecorder.host1.wlan[0].mac.dcf.recipientMacDataService packetDropDuplicateDetected:count 0
attr interpolationmode none
attr recordingmode count
attr source packetDropReasonIsDuplicateDetected(packetDropped)
attr title "packet drops: duplicate detected, count"
scalar wGptpPcapRecorder.host1.wlan[0].mac.dcf.recipientMacDataService packetDropDuplicateDetected:sum(packetBytes) 0
attr interpolationmode none
attr recordingmode sum(packetBytes)
attr source packetDropReasonIsDuplicateDetected(packetDropped)
attr title "packet drops: duplicate detected, sum(packetBytes)"
par wGptpPcapRecorder.host1.wlan[0].mac.dcf.rateSelection typename "\"inet.linklayer.ieee80211.mac.rateselection.RateSelection\""
par wGptpPcapRecorder.host1.wlan[0].mac.dcf.rateSelection rateControlModule "\"^.rateControl\""
par wGptpPcapRecorder.host1.wlan[0].mac.dcf.rateSelection multicastFrameBitrate -1bps
attr unit bps
par wGptpPcapRecorder.host1.wlan[0].mac.dcf.rateSelection responseAckFrameBitrate -1bps
attr unit bps
par wGptpPcapRecorder.host1.wlan[0].mac.dcf.rateSelection responseCtsFrameBitrate -1bps
attr unit bps
par wGptpPcapRecorder.host1.wlan[0].mac.dcf.rateSelection dataFrameBitrate -1bps
attr unit bps
par wGptpPcapRecorder.host1.wlan[0].mac.dcf.rateSelection dataFrameBandwidth "nan Hz"
attr unit Hz
par wGptpPcapRecorder.host1.wlan[0].mac.dcf.rateSelection dataFrameNumSpatialStreams -1
par wGptpPcapRecorder.host1.wlan[0].mac.dcf.rateSelection mgmtFrameBitrate -1bps
attr unit bps
par wGptpPcapRecorder.host1.wlan[0].mac.dcf.rateSelection controlFrameBitrate -1bps
attr unit bps
par wGptpPcapRecorder.host1.wlan[0].mac.dcf.recoveryProcedure typename "\"inet.linklayer.ieee80211.mac.originator.NonQosRecoveryProcedure\""
par wGptpPcapRecorder.host1.wlan[0].mac.dcf.recoveryProcedure cwCalculatorModule "\"^.channelAccess\""
par wGptpPcapRecorder.host1.wlan[0].mac.dcf.recoveryProcedure rtsPolicyModule "\"^.rtsPolicy\""
par wGptpPcapRecorder.host1.wlan[0].mac.dcf.recoveryProcedure shortRetryLimit 7
par wGptpPcapRecorder.host1.wlan[0].mac.dcf.recoveryProcedure longRetryLimit 4
scalar wGptpPcapRecorder.host1.wlan[0].mac.dcf.recoveryProcedure retryLimitReached:count 0
attr recordingmode count
attr title "retry limit reached, count"
par wGptpPcapRecorder.host1.wlan[0].mac.dcf.originatorProtectionMechanism typename "\"inet.linklayer.ieee80211.mac.protectionmechanism.OriginatorProtectionMechanism\""
par wGptpPcapRecorder.host1.wlan[0].mac.dcf.originatorProtectionMechanism rateSelectionModule "\"^.rateSelection\""
par wGptpPcapRecorder.host1.wlan[0].mac.dcf.ackHandler typename "\"inet.linklayer.ieee80211.mac.originator.AckHandler\""
par wGptpPcapRecorder.host1.wlan[0].mac.dcf.originatorAckPolicy typename "\"inet.linklayer.ieee80211.mac.originator.OriginatorAckPolicy\""
par wGptpPcapRecorder.host1.wlan[0].mac.dcf.originatorAckPolicy rateSelectionModule "\"^.rateSelection\""
par wGptpPcapRecorder.host1.wlan[0].mac.dcf.originatorAckPolicy ackTimeout -1s
attr unit s
par wGptpPcapRecorder.host1.wlan[0].mac.dcf.recipientAckPolicy typename "\"inet.linklayer.ieee80211.mac.recipient.RecipientAckPolicy\""
par wGptpPcapRecorder.host1.wlan[0].mac.dcf.recipientAckPolicy rateSelectionModule "\"^.rateSelection\""
par wGptpPcapRecorder.host1.wlan[0].mac.dcf.rtsPolicy typename "\"inet.linklayer.ieee80211.mac.originator.RtsPolicy\""
par wGptpPcapRecorder.host1.wlan[0].mac.dcf.rtsPolicy rateSelectionModule "\"^.rateSelection\""
par wGptpPcapRecorder.host1.wlan[0].mac.dcf.rtsPolicy ctsTimeout -1s
attr unit s
par wGptpPcapRecorder.host1.wlan[0].mac.dcf.rtsPolicy rtsThreshold 2346B
attr unit B
par wGptpPcapRecorder.host1.wlan[0].mac.dcf.ctsPolicy typename "\"inet.linklayer.ieee80211.mac.recipient.CtsPolicy\""
par wGptpPcapRecorder.host1.wlan[0].mac.dcf.ctsPolicy rxModule "\"^.^.rx\""
par wGptpPcapRecorder.host1.wlan[0].mac.dcf.ctsPolicy rateSelectionModule "\"^.rateSelection\""
par wGptpPcapRecorder.host1.wlan[0].mac.dcf typename "\"inet.linklayer.ieee80211.mac.coordinationfunction.Dcf\""
par wGptpPcapRecorder.host1.wlan[0].mac.dcf rxModule "\"^.rx\""
par wGptpPcapRecorder.host1.wlan[0].mac.dcf txModule "\"^.tx\""
scalar wGptpPcapRecorder.host1.wlan[0].mac.dcf frameSequenceFinished:count 1339
attr recordingmode count
attr title "finished frame sequences, count"
statistic wGptpPcapRecorder.host1.wlan[0].mac.dcf frameSequenceDuration:histogram
field count 1339
field mean 5.9771471247198e-05
field stddev 5.6909750887053e-06
field min 5.4e-05
field max 6.6e-05
field sum 0.080033999999998
field sqrsum 4.827084e-06
attr recordingmode histogram
attr source frameSequenceDuration(frameSequenceFinished)
attr title "frame sequence durations"
bin	-inf	0
bin	5.08e-05	0
bin	5.1e-05	0
bin	5.12e-05	0
bin	5.14e-05	0
bin	5.16e-05	0
bin	5.18e-05	0
bin	5.2e-05	0
bin	5.22e-05	0
bin	5.24e-05	0
bin	5.26e-05	0
bin	5.28e-05	0
bin	5.3e-05	0
bin	5.32e-05	0
bin	5.34e-05	0
bin	5.36e-05	0
bin	5.38e-05	595
bin	5.4e-05	0
bin	5.42e-05	0
bin	5.44e-05	0
bin	5.46e-05	0
bin	5.48e-05	0
bin	5.5e-05	0
bin	5.52e-05	0
bin	5.54e-05	0
bin	5.56e-05	0
bin	5.58e-05	0
bin	5.6e-05	0
bin	5.62e-05	0
bin	5.64e-05	0
bin	5.66e-05	0
bin	5.68e-05	0
bin	5.7e-05	0
bin	5.72e-05	0
bin	5.74e-05	0
bin	5.76e-05	0
bin	5.78e-05	150
bin	5.8e-05	0
bin	5.82e-05	0
bin	5.84e-05	0
bin	5.86e-05	0
bin	5.88e-05	0
bin	5.9e-05	0
bin	5.92e-05	0
bin	5.94e-05	0
bin	5.96e-05	0
bin	5.98e-05	0
bin	6e-05	0
bin	6.02e-05	0
bin	6.04e-05	0
bin	6.06e-05	0
bin	6.08e-05	0
bin	6.1e-05	0
bin	6.12e-05	0
bin	6.14e-05	0
bin	6.16e-05	0
bin	6.18e-05	0
bin	6.2e-05	0
bin	6.22e-05	0
bin	6.24e-05	0
bin	6.26e-05	0
bin	6.28e-05	0
bin	6.3e-05	0
bin	6.32e-05	0
bin	6.34e-05	0
bin	6.36e-05	0
bin	6.38e-05	0
bin	6.4e-05	0
bin	6.42e-05	0
bin	6.44e-05	0
bin	6.46e-05	0
bin	6.48e-05	0
bin	6.5e-05	0
bin	6.52e-05	0
bin	6.54e-05	0
bin	6.56e-05	0
bin	6.58e-05	0
bin	6.6e-05	594
bin	6.62e-05	0
bin	6.64e-05	0
bin	6.66e-05	0
bin	6.68e-05	0
bin	6.7e-05	0
bin	6.72e-05	0
bin	6.74e-05	0
bin	6.76e-05	0
bin	6.78e-05	0
bin	6.8e-05	0
bin	6.82e-05	0
bin	6.84e-05	0
bin	6.86e-05	0
bin	6.88e-05	0
bin	6.9e-05	0
statistic wGptpPcapRecorder.host1.wlan[0].mac.dcf frameSequenceNumPackets:histogram
field count 1339
field mean 1
field stddev 0
field min 1
field max 1
field sum 1339
field sqrsum 1339
attr recordingmode histogram
attr source frameSequenceNumPackets(frameSequenceFinished)
attr title "frame sequences: number of packets"
bin	-inf	0
bin	0	0
bin	1	1339
bin	2	0
scalar wGptpPcapRecorder.host1.wlan[0].mac.dcf packetReceivedFromPeer:count 75
attr interpolationmode none
attr recordingmode count
attr title "packets received, count"
scalar wGptpPcapRecorder.host1.wlan[0].mac.dcf packetReceivedFromPeer:sum(packetBytes) 6750
attr interpolationmode none
attr recordingmode sum(packetBytes)
attr title "packets received, sum(packetBytes)"
scalar wGptpPcapRecorder.host1.wlan[0].mac.dcf packetReceivedFromPeerUnicast:count 0
attr interpolationmode none
attr recordingmode count
attr source ieee80211Unicast(packetReceivedFromPeer)
attr title "packets received: unicast, count"
scalar wGptpPcapRecorder.host1.wlan[0].mac.dcf packetReceivedFromPeerUnicast:sum(packetBytes) 0
attr interpolationmode none
attr recordingmode sum(packetBytes)
attr source ieee80211Unicast(packetReceivedFromPeer)
attr title "packets received: unicast, sum(packetBytes)"
scalar wGptpPcapRecorder.host1.wlan[0].mac.dcf packetReceivedFromPeerMulticast:count 75
attr interpolationmode none
attr recordingmode count
attr source ieee80211Multicast(packetReceivedFromPeer)
attr title "packets received: multicast, count"
scalar wGptpPcapRecorder.host1.wlan[0].mac.dcf packetReceivedFromPeerMulticast:sum(packetBytes) 6750
attr interpolationmode none
attr recordingmode sum(packetBytes)
attr source ieee80211Multicast(packetReceivedFromPeer)
attr title "packets received: multicast, sum(packetBytes)"
scalar wGptpPcapRecorder.host1.wlan[0].mac.dcf packetReceivedFromPeerBroadcast:count 0
attr interpolationmode none
attr recordingmode count
attr source ieee80211Broadcast(packetReceivedFromPeer)
attr title "packets received: broadcast, count"
scalar wGptpPcapRecorder.host1.wlan[0].mac.dcf packetReceivedFromPeerBroadcast:sum(packetBytes) 0
attr interpolationmode none
attr recordingmode sum(packetBytes)
attr source ieee80211Broadcast(packetReceivedFromPeer)
attr title "packets received: broadcast, sum(packetBytes)"
scalar wGptpPcapRecorder.host1.wlan[0].mac.dcf packetReceivedFromPeerWithRetry:count 0
attr interpolationmode none
attr recordingmode count
attr source ieee80211Retry(packetReceivedFromPeer)
attr title "packets received: with retry, count"
scalar wGptpPcapRecorder.host1.wlan[0].mac.dcf packetReceivedFromPeerWithRetry:sum(packetBytes) 0
attr interpolationmode none
attr recordingmode sum(packetBytes)
attr source ieee80211Retry(packetReceivedFromPeer)
attr title "packets received: with retry, sum(packetBytes)"
scalar wGptpPcapRecorder.host1.wlan[0].mac.dcf packetReceivedFromPeerWithoutRetry:count 75
attr interpolationmode none
attr recordingmode count
attr source ieee80211NotRetry(packetReceivedFromPeer)
attr title "packets received: without retry, count"
scalar wGptpPcapRecorder.host1.wlan[0].mac.dcf packetReceivedFromPeerWithoutRetry:sum(packetBytes) 6750
attr interpolationmode none
attr recordingmode sum(packetBytes)
attr source ieee80211NotRetry(packetReceivedFromPeer)
attr title "packets received: without retry, sum(packetBytes)"
scalar wGptpPcapRecorder.host1.wlan[0].mac.dcf packetSentToPeer:count 1339
attr interpolationmode none
attr recordingmode count
attr title "packets sent, count"
scalar wGptpPcapRecorder.host1.wlan[0].mac.dcf packetSentToPeer:sum(packetBytes) 127628
attr interpolationmode none
attr recordingmode sum(packetBytes)
attr title "packets sent, sum(packetBytes)"
scalar wGptpPcapRecorder.host1.wlan[0].mac.dcf packetSentToPeerUnicast:count 0
attr interpolationmode none
attr recordingmode count
attr source ieee80211Unicast(packetSentToPeer)
attr title "packets sent: unicast, count"
scalar wGptpPcapRecorder.host1.wlan[0].mac.dcf packetSentToPeerUnicast:sum(packetBytes) 0
attr interpolationmode none
attr recordingmode sum(packetBytes)
attr source ieee80211Unicast(packetSentToPeer)
attr title "packets sent: unicast, sum(packetBytes)"
scalar wGptpPcapRecorder.host1.wlan[0].mac.dcf packetSentToPeerMulticast:count 1339
attr interpolationmode none
attr recordingmode count
attr source ieee80211Multicast(packetSentToPeer)
attr title "packets sent: multicast, count"
scalar wGptpPcapRecorder.host1.wlan[0].mac.dcf packetSentToPeerMulticast:sum(packetBytes) 127628
attr interpolationmode none
attr recordingmode sum(packetBytes)
attr source ieee80211Multicast(packetSentToPeer)
attr title "packets sent: multicast, sum(packetBytes)"
scalar wGptpPcapRecorder.host1.wlan[0].mac.dcf packetSentToPeerBroadcast:count 0
attr interpolationmode none
attr recordingmode count
attr source ieee80211Broadcast(packetSentToPeer)
attr title "packets sent: broadcast , count"
scalar wGptpPcapRecorder.host1.wlan[0].mac.dcf packetSentToPeerBroadcast:sum(packetBytes) 0
attr interpolationmode none
attr recordingmode sum(packetBytes)
attr source ieee80211Broadcast(packetSentToPeer)
attr title "packets sent: broadcast , sum(packetBytes)"
scalar wGptpPcapRecorder.host1.wlan[0].mac.dcf packetSentToPeerWithRetry:count 0
attr interpolationmode none
attr recordingmode count
attr source ieee80211Retry(packetSentToPeer)
attr title "packets sent: with retry, count"
scalar wGptpPcapRecorder.host1.wlan[0].mac.dcf packetSentToPeerWithRetry:sum(packetBytes) 0
attr interpolationmode none
attr recordingmode sum(packetBytes)
attr source ieee80211Retry(packetSentToPeer)
attr title "packets sent: with retry, sum(packetBytes)"
scalar wGptpPcapRecorder.host1.wlan[0].mac.dcf packetSentToPeerWithoutRetry:count 1339
attr interpolationmode none
attr recordingmode count
attr source ieee80211NotRetry(packetSentToPeer)
attr title "packets sent: without retry, count"
scalar wGptpPcapRecorder.host1.wlan[0].mac.dcf packetSentToPeerWithoutRetry:sum(packetBytes) 127628
attr interpolationmode none
attr recordingmode sum(packetBytes)
attr source ieee80211NotRetry(packetSentToPeer)
attr title "packets sent: without retry, sum(packetBytes)"
scalar wGptpPcapRecorder.host1.wlan[0].mac.dcf packetDrop:count 0
attr interpolationmode none
attr recordingmode count
attr source packetDropped
attr title "packet drops, count"
scalar wGptpPcapRecorder.host1.wlan[0].mac.dcf packetDrop:sum(packetBytes) 0
attr interpolationmode none
attr recordingmode sum(packetBytes)
attr source packetDropped
attr title "packet drops, sum(packetBytes)"
scalar wGptpPcapRecorder.host1.wlan[0].mac.dcf packetDropNotAddressedToUs:count 0
attr interpolationmode none
attr recordingmode count
attr source packetDropReasonIsNotAddressedToUs(packetDropped)
attr title "packet drops: not addressed to us, count"
scalar wGptpPcapRecorder.host1.wlan[0].mac.dcf packetDropNotAddressedToUs:sum(packetBytes) 0
attr interpolationmode none
attr recordingmode sum(packetBytes)
attr source packetDropReasonIsNotAddressedToUs(packetDropped)
attr title "packet drops: not addressed to us, sum(packetBytes)"
scalar wGptpPcapRecorder.host1.wlan[0].mac.dcf packetDropQueueOverflow:count 0
attr interpolationmode none
attr recordingmode count
attr source packetDropReasonIsQueueOverflow(packetDropped)
attr title "packet drops: queue overflow, count"
scalar wGptpPcapRecorder.host1.wlan[0].mac.dcf packetDropQueueOverflow:sum(packetBytes) 0
attr interpolationmode none
attr recordingmode sum(packetBytes)
attr source packetDropReasonIsQueueOverflow(packetDropped)
attr title "packet drops: queue overflow, sum(packetBytes)"
scalar wGptpPcapRecorder.host1.wlan[0].mac.dcf packetDropRetryLimitReached:count 0
attr interpolationmode none
attr recordingmode count
attr source packetDropReasonIsRetryLimitReached(packetDropped)
attr title "packet drops: retry limit reached, count"
scalar wGptpPcapRecorder.host1.wlan[0].mac.dcf packetDropRetryLimitReached:sum(packetBytes) 0
attr interpolationmode none
attr recordingmode sum(packetBytes)
attr source packetDropReasonIsRetryLimitReached(packetDropped)
attr title "packet drops: retry limit reached, sum(packetBytes)"
scalar wGptpPcapRecorder.host1.wlan[0].mac.dcf linkBroken:count 0
attr interpolationmode none
attr recordingmode count
attr title "link breaks, count"
par wGptpPcapRecorder.host1.wlan[0].mac.ds typename "\"inet.linklayer.ieee80211.mac.Ds\""
par wGptpPcapRecorder.host1.wlan[0].mac.ds mibModule "\"wGptpPcapRecorder.host1.wlan[0].mib\""
par wGptpPcapRecorder.host1.wlan[0].mac.rx typename "\"inet.linklayer.ieee80211.mac.Rx\""
par wGptpPcapRecorder.host1.wlan[0].mac.tx typename "\"inet.linklayer.ieee80211.mac.Tx\""
par wGptpPcapRecorder.host1.wlan[0].mac.tx rxModule "\"^.rx\""
par wGptpPcapRecorder.host1.wlan[0].mac typename "\"inet.linklayer.ieee80211.mac.Ieee80211Mac\""
par wGptpPcapRecorder.host1.wlan[0].mac interfaceTableModule "\"wGptpPcapRecorder.host1.interfaceTable\""
par wGptpPcapRecorder.host1.wlan[0].mac mibModule "\"wGptpPcapRecorder.host1.wlan[0].mib\""
par wGptpPcapRecorder.host1.wlan[0].mac modeSet "\"g(mixed)\""
attr enum a,b,g(erp),g(mixed),n(mixed-2.4Ghz),p,ac
par wGptpPcapRecorder.host1.wlan[0].mac fcsMode "\"computed\""
attr enum declared,computed
par wGptpPcapRecorder.host1.wlan[0].mac initialRadioMode "\"receiver\""
attr enum off,sleep,receiver,transmitter,transceiver
par wGptpPcapRecorder.host1.wlan[0].mac mtu 2304B
attr unit B
par wGptpPcapRecorder.host1.wlan[0].mac qosStation false
scalar wGptpPcapRecorder.host1.wlan[0].mac packetReceivedFromLower:count 75
attr interpolationmode none
attr recordingmode count
attr title "packets received from lower layer, count"
scalar wGptpPcapRecorder.host1.wlan[0].mac packetReceivedFromLower:sum(packetBytes) 6750
attr interpolationmode none
attr recordingmode sum(packetBytes)
attr title "packets received from lower layer, sum(packetBytes)"
scalar wGptpPcapRecorder.host1.wlan[0].mac packetSentToLower:count 1339
attr interpolationmode none
attr recordingmode count
attr title "packets sent to lower layer, count"
scalar wGptpPcapRecorder.host1.wlan[0].mac packetSentToLower:sum(packetBytes) 127628
attr interpolationmode none
attr recordingmode sum(packetBytes)
attr title "packets sent to lower layer, sum(packetBytes)"
scalar wGptpPcapRecorder.host1.wlan[0].mac packetReceivedFromUpper:count 1340
attr interpolationmode none
attr recordingmode count
attr title "packets received from upper layer, count"
scalar wGptpPcapRecorder.host1.wlan[0].mac packetReceivedFromUpper:sum(packetBytes) 90220
attr interpolationmode none
attr recordingmode sum(packetBytes)
attr title "packets received from upper layer, sum(packetBytes)"
scalar wGptpPcapRecorder.host1.wlan[0].mac packetSentToUpper:count 75
attr interpolationmode none
attr recordingmode count
attr title "packets sent to upper layer, count"
scalar wGptpPcapRecorder.host1.wlan[0].mac packetSentToUpper:sum(packetBytes) 4650
attr interpolationmode none
attr recordingmode sum(packetBytes)
attr title "packets sent to upper layer, sum(packetBytes)"
scalar wGptpPcapRecorder.host1.wlan[0].mac packetDrop:count 0
attr interpolationmode none
attr recordingmode count
attr source packetDropped
attr title "packet drops, count"
scalar wGptpPcapRecorder.host1.wlan[0].mac packetDrop:sum(packetBytes) 0
attr interpolationmode none
attr recordingmode sum(packetBytes)
attr source packetDropped
attr title "packet drops, sum(packetBytes)"
scalar wGptpPcapRecorder.host1.wlan[0].mac packetDropIncorrectlyReceived:count 0
attr interpolationmode none
attr recordingmode count
attr source packetDropReasonIsIncorrectlyReceived(packetDropped)
attr title "packet drops: incorrectly received, count"
scalar wGptpPcapRecorder.host1.wlan[0].mac packetDropIncorrectlyReceived:sum(packetBytes) 0
attr interpolationmode none
attr recordingmode sum(packetBytes)
attr source packetDropReasonIsIncorrectlyReceived(packetDropped)
attr title "packet drops: incorrectly received, sum(packetBytes)"
scalar wGptpPcapRecorder.host1.wlan[0].mac packetDropNotAddressedToUs:count 0
attr interpolationmode none
attr recordingmode count
attr source packetDropReasonIsNotAddressedToUs(packetDropped)
attr title "packet drops: not addressed to us, count"
scalar wGptpPcapRecorder.host1.wlan[0].mac packetDropNotAddressedToUs:sum(packetBytes) 0
attr interpolationmode none
attr recordingmode sum(packetBytes)
attr source packetDropReasonIsNotAddressedToUs(packetDropped)
attr title "packet drops: not addressed to us, sum(packetBytes)"
scalar wGptpPcapRecorder.host1.wlan[0].mac packetDropQueueOverflow:count 0
attr interpolationmode none
attr recordingmode count
attr source packetDropReasonIsQueueOverflow(packetDropped)
attr title "packet drops: queue overflow, count"
scalar wGptpPcapRecorder.host1.wlan[0].mac packetDropQueueOverflow:sum(packetBytes) 0
attr interpolationmode none
attr recordingmode sum(packetBytes)
attr source packetDropReasonIsQueueOverflow(packetDropped)
attr title "packet drops: queue overflow, sum(packetBytes)"
scalar wGptpPcapRecorder.host1.wlan[0].mac packetDropRetryLimitReached:count 0
attr interpolationmode none
attr recordingmode count
attr source packetDropReasonIsRetryLimitReached(packetDropped)
attr title "packet drops: retry limit reached, count"
scalar wGptpPcapRecorder.host1.wlan[0].mac packetDropRetryLimitReached:sum(packetBytes) 0
attr interpolationmode none
attr recordingmode sum(packetBytes)
attr source packetDropReasonIsRetryLimitReached(packetDropped)
attr title "packet drops: retry limit reached, sum(packetBytes)"
scalar wGptpPcapRecorder.host1.wlan[0].mac packetDropDuplicateDetected:count 0
attr interpolationmode none
attr recordingmode count
attr source packetDropReasonIsDuplicateDetected(packetDropped)
attr title "packet drops: duplicate detected, count"
scalar wGptpPcapRecorder.host1.wlan[0].mac packetDropDuplicateDetected:sum(packetBytes) 0
attr interpolationmode none
attr recordingmode sum(packetBytes)
attr source packetDropReasonIsDuplicateDetected(packetDropped)
attr title "packet drops: duplicate detected, sum(packetBytes)"
scalar wGptpPcapRecorder.host1.wlan[0].mac packetDropOther:count 0
attr interpolationmode none
attr recordingmode count
attr source packetDropReasonIsOther(packetDropped)
attr title "packet drops: other, count"
scalar wGptpPcapRecorder.host1.wlan[0].mac packetDropOther:sum(packetBytes) 0
attr interpolationmode none
attr recordingmode sum(packetBytes)
attr source packetDropReasonIsOther(packetDropped)
attr title "packet drops: other, sum(packetBytes)"
scalar wGptpPcapRecorder.host1.wlan[0].mac linkBroken:count 0
attr interpolationmode none
attr recordingmode count
attr title "link breaks, count"
par wGptpPcapRecorder.host1.wlan[0].radio.antenna typename "\"inet.physicallayer.wireless.common.antenna.IsotropicAntenna\""
par wGptpPcapRecorder.host1.wlan[0].radio.antenna mobilityModule "\"^.^.^.mobility\""
par wGptpPcapRecorder.host1.wlan[0].radio.antenna numAntennas 1
par wGptpPcapRecorder.host1.wlan[0].radio.transmitter typename "\"inet.physicallayer.wireless.ieee80211.packetlevel.Ieee80211ScalarTransmitter\""
par wGptpPcapRecorder.host1.wlan[0].radio.transmitter preambleDuration -1s
attr unit s
par wGptpPcapRecorder.host1.wlan[0].radio.transmitter headerLength 192b
attr unit b
par wGptpPcapRecorder.host1.wlan[0].radio.transmitter bitrate -1bps
attr unit bps
par wGptpPcapRecorder.host1.wlan[0].radio.transmitter power 0.02W
attr unit W
par wGptpPcapRecorder.host1.wlan[0].radio.transmitter centerFrequency 2.412e+09Hz
attr unit Hz
par wGptpPcapRecorder.host1.wlan[0].radio.transmitter bandwidth "nan Hz"
attr unit Hz
par wGptpPcapRecorder.host1.wlan[0].radio.transmitter codeRate 1
par wGptpPcapRecorder.host1.wlan[0].radio.transmitter modulation "\"BPSK\""
par wGptpPcapRecorder.host1.wlan[0].radio.transmitter opMode "\"g(mixed)\""
attr enum a,b,g(erp),g(mixed),n(mixed-2.4Ghz),p,ac
par wGptpPcapRecorder.host1.wlan[0].radio.transmitter bandName "\"2.4 GHz\""
attr enum "2.4 GHz,5 GHz,5 GHz (20 MHz),5 GHz (40 MHz),5 GHz (80 MHz),5 GHz (160 MHz),5.9 GHz"
par wGptpPcapRecorder.host1.wlan[0].radio.transmitter channelNumber 0
par wGptpPcapRecorder.host1.wlan[0].radio.receiver.errorModel typename "\"inet.physicallayer.wireless.ieee80211.packetlevel.errormodel.Ieee80211NistErrorModel\""
par wGptpPcapRecorder.host1.wlan[0].radio.receiver.errorModel corruptionMode "\"packet\""
attr enum packet,chunk,byte,bit
par wGptpPcapRecorder.host1.wlan[0].radio.receiver.errorModel snirMode "\"min\""
attr enum min,mean
par wGptpPcapRecorder.host1.wlan[0].radio.receiver.errorModel snirOffset 0dB
attr unit dB
par wGptpPcapRecorder.host1.wlan[0].radio.receiver typename "\"inet.physicallayer.wireless.ieee80211.packetlevel.Ieee80211ScalarReceiver\""
par wGptpPcapRecorder.host1.wlan[0].radio.receiver snirThreshold 4dB
attr unit dB
par wGptpPcapRecorder.host1.wlan[0].radio.receiver snirThresholdMode "\"min\""
attr enum min,mean
par wGptpPcapRecorder.host1.wlan[0].radio.receiver energyDetection -85dBm
attr unit dBm
par wGptpPcapRecorder.host1.wlan[0].radio.receiver sensitivity -85dBm
attr unit dBm
par wGptpPcapRecorder.host1.wlan[0].radio.receiver centerFrequency 2.412e+09Hz
attr unit Hz
par wGptpPcapRecorder.host1.wlan[0].radio.receiver bandwidth 2.2e+07Hz
attr unit Hz
par wGptpPcapRecorder.host1.wlan[0].radio.receiver modulation "\"BPSK\""
par wGptpPcapRecorder.host1.wlan[0].radio.receiver opMode "\"g(mixed)\""
attr enum a,b,g(erp),g(mixed),n(mixed-2.4Ghz),p,ac
par wGptpPcapRecorder.host1.wlan[0].radio.receiver bandName "\"2.4 GHz\""
attr enum "2.4 GHz,5 GHz,5 GHz (20 MHz),5 GHz (40 MHz),5 GHz (80 MHz),5 GHz (160 MHz),5.9 GHz"
par wGptpPcapRecorder.host1.wlan[0].radio.receiver channelNumber 0
par wGptpPcapRecorder.host1.wlan[0].radio typename "\"inet.physicallayer.wireless.ieee80211.packetlevel.Ieee80211ScalarRadio\""
par wGptpPcapRecorder.host1.wlan[0].radio radioMediumModule "\"radioMedium\""
par wGptpPcapRecorder.host1.wlan[0].radio energySourceModule "\"\""
par wGptpPcapRecorder.host1.wlan[0].radio initialRadioMode "\"off\""
attr enum off,sleep,receiver,transmitter,transceiver
par wGptpPcapRecorder.host1.wlan[0].radio switchingTimes "\"ms 0 0 0 0 0 0 0 0 0 0 0 0 0 0 0 0 0 0 0 0 0 0 0 0 0\""
par wGptpPcapRecorder.host1.wlan[0].radio sendRawBytes false
par wGptpPcapRecorder.host1.wlan[0].radio separateTransmissionParts false
par wGptpPcapRecorder.host1.wlan[0].radio separateReceptionParts false
par wGptpPcapRecorder.host1.wlan[0].radio displayCommunicationRange false
par wGptpPcapRecorder.host1.wlan[0].radio displayInterferenceRange false
par wGptpPcapRecorder.host1.wlan[0].radio centerFrequency 2.412e+09Hz
attr unit Hz
par wGptpPcapRecorder.host1.wlan[0].radio bandwidth "nan Hz"
attr unit Hz
par wGptpPcapRecorder.host1.wlan[0].radio signalAnalogRepresentation "\"scalar\""
attr enum scalar,dimensional
par wGptpPcapRecorder.host1.wlan[0].radio opMode "\"g(mixed)\""
attr enum a,b,g(erp),g(mixed),n(mixed-2.4Ghz),p,ac
par wGptpPcapRecorder.host1.wlan[0].radio bandName "\"2.4 GHz\""
attr enum "2.4 GHz,5 GHz,5 GHz (20 MHz),5 GHz (40 MHz),5 GHz (80 MHz),5 GHz (160 MHz),5.9 GHz"
par wGptpPcapRecorder.host1.wlan[0].radio channelNumber 0
par wGptpPcapRecorder.host1.wlan[0].radio crcMode "\"computed\""
attr enum declared,computed
statistic wGptpPcapRecorder.host1.wlan[0].radio radioChannel:histogram
field count 1
field mean 0
field stddev -nan
field min 0
field max 0
field sum 0
field sqrsum 0
attr interpolationmode sample-hold
attr recordingmode histogram
attr source radioChannelChanged
attr title "Radio channel"
bin	-inf	0
bin	-0.5	0
bin	-0.48	0
bin	-0.46	0
bin	-0.44	0
bin	-0.42	0
bin	-0.4	0
bin	-0.38	0
bin	-0.36	0
bin	-0.34	0
bin	-0.32	0
bin	-0.3	0
bin	-0.28	0
bin	-0.26	0
bin	-0.24	0
bin	-0.22	0
bin	-0.2	0
bin	-0.18	0
bin	-0.16	0
bin	-0.14	0
bin	-0.12	0
bin	-0.1	0
bin	-0.08	0
bin	-0.06	0
bin	-0.04	0
bin	-0.02	0
bin	0	1
bin	0.02	0
bin	0.04	0
bin	0.06	0
bin	0.08	0
bin	0.1	0
bin	0.12	0
bin	0.14	0
bin	0.16	0
bin	0.18	0
bin	0.2	0
bin	0.22	0
bin	0.24	0
bin	0.26	0
bin	0.28	0
bin	0.3	0
bin	0.32	0
bin	0.34	0
bin	0.36	0
bin	0.38	0
bin	0.4	0
bin	0.42	0
bin	0.44	0
bin	0.46	0
bin	0.48	0
bin	0.5	0
scalar wGptpPcapRecorder.host1.wlan[0].radio radioMode:count 2681
attr interpolationmode sample-hold
attr recordingmode count
attr source radioModeChanged
attr title "Radio mode, count"
scalar wGptpPcapRecorder.host1.wlan[0].radio receptionState:count 2829
attr interpolationmode sample-hold
attr recordingmode count
attr source receptionStateChanged
attr title "Radio reception state, count"
scalar wGptpPcapRecorder.host1.wlan[0].radio transmissionState:count 5356
attr interpolationmode sample-hold
attr recordingmode count
attr source transmissionStateChanged
attr title "Radio transmission state, count"
statistic wGptpPcapRecorder.host1.wlan[0].radio minSnir:histogram
field count 75
field mean 1222.8609700649
field stddev 0
field min 1222.8609700649
field max 1222.8609700649
field sum 91714.572754868
field sqrsum 112154171.40811
attr recordingmode histogram
attr source minimumSnir(packetSentToUpper)
attr title "Min SNIR"
bin	-inf	0
bin	1222.36	0
bin	1222.38	0
bin	1222.4	0
bin	1222.42	0
bin	1222.44	0
bin	1222.46	0
bin	1222.48	0
bin	1222.5	0
bin	1222.52	0
bin	1222.54	0
bin	1222.56	0
bin	1222.58	0
bin	1222.6	0
bin	1222.62	0
bin	1222.64	0
bin	1222.66	0
bin	1222.68	0
bin	1222.7	0
bin	1222.72	0
bin	1222.74	0
bin	1222.76	0
bin	1222.78	0
bin	1222.8	0
bin	1222.82	0
bin	1222.84	0
bin	1222.86	75
bin	1222.88	0
bin	1222.9	0
bin	1222.92	0
bin	1222.94	0
bin	1222.96	0
bin	1222.98	0
bin	1223	0
bin	1223.02	0
bin	1223.04	0
bin	1223.06	0
bin	1223.08	0
bin	1223.1	0
bin	1223.12	0
bin	1223.14	0
bin	1223.16	0
bin	1223.18	0
bin	1223.2	0
bin	1223.22	0
bin	1223.24	0
bin	1223.26	0
bin	1223.28	0
bin	1223.3	0
bin	1223.32	0
bin	1223.34	0
bin	1223.36	0
bin	1223.38	0
statistic wGptpPcapRecorder.host1.wlan[0].radio packetErrorRate:histogram
field count 75
field mean 0
field stddev 0
field min 0
field max 0
field sum 0
field sqrsum 0
attr recordingmode histogram
attr source packetErrorRate(packetSentToUpper)
attr title "Packet error rate"
bin	-inf	0
bin	-0.5	0
bin	-0.48	0
bin	-0.46	0
bin	-0.44	0
bin	-0.42	0
bin	-0.4	0
bin	-0.38	0
bin	-0.36	0
bin	-0.34	0
bin	-0.32	0
bin	-0.3	0
bin	-0.28	0
bin	-0.26	0
bin	-0.24	0
bin	-0.22	0
bin	-0.2	0
bin	-0.18	0
bin	-0.16	0
bin	-0.14	0
bin	-0.12	0
bin	-0.1	0
bin	-0.08	0
bin	-0.06	0
bin	-0.04	0
bin	-0.02	0
bin	0	75
bin	0.02	0
bin	0.04	0
bin	0.06	0
bin	0.08	0
bin	0.1	0
bin	0.12	0
bin	0.14	0
bin	0.16	0
bin	0.18	0
bin	0.2	0
bin	0.22	0
bin	0.24	0
bin	0.26	0
bin	0.28	0
bin	0.3	0
bin	0.32	0
bin	0.34	0
bin	0.36	0
bin	0.38	0
bin	0.4	0
bin	0.42	0
bin	0.44	0
bin	0.46	0
bin	0.48	0
bin	0.5	0
statistic wGptpPcapRecorder.host1.wlan[0].radio bitErrorRate:histogram
field count 0
field mean -nan
field stddev -nan
field min -nan
field max -nan
field sum 0
field sqrsum 0
attr recordingmode histogram
attr source bitErrorRate(packetSentToUpper)
attr title "Bit error rate"
bin	-inf	0
bin	0	0
bin	1	0
statistic wGptpPcapRecorder.host1.wlan[0].radio symbolErrorRate:histogram
field count 0
field mean -nan
field stddev -nan
field min -nan
field max -nan
field sum 0
field sqrsum 0
attr recordingmode histogram
attr source symbolErrorRate(packetSentToUpper)
attr title "Symbol error rate"
bin	-inf	0
bin	0	0
bin	1	0
par wGptpPcapRecorder.host1.wlan[0] typename "\"inet.linklayer.ieee80211.Ieee80211Interface\""
par wGptpPcapRecorder.host1.wlan[0] displayStringTextFormat "\"%a (%i)\\n%m\""
par wGptpPcapRecorder.host1.wlan[0] recordPcap false
par wGptpPcapRecorder.host1.wlan[0] numPcapRecorders 0
par wGptpPcapRecorder.host1.wlan[0] interfaceTableModule "\"wGptpPcapRecorder.host1.interfaceTable\""
par wGptpPcapRecorder.host1.wlan[0] energySourceModule "\"\""
par wGptpPcapRecorder.host1.wlan[0] opMode "\"g(mixed)\""
attr enum a,b,g(erp),g(mixed),n(mixed-2.4Ghz),p,ac
par wGptpPcapRecorder.host1.wlan[0] address "\"0A-AA-00-00-00-01\""
attr mutable ""
par wGptpPcapRecorder.host1.wlan[0] protocol "\"\""
par wGptpPcapRecorder.host1.wlan[0] bitrate -1bps
attr unit bps
scalar wGptpPcapRecorder.host1.wlan[0] packetDropInterfaceDown:count 0
attr interpolationmode none
attr recordingmode count
attr source packetDropReasonIsInterfaceDown(packetDropped)
attr title "packet drops: interface down, count"
scalar wGptpPcapRecorder.host1.wlan[0] packetDropInterfaceDown:sum(packetBytes) 0
attr interpolationmode none
attr recordingmode sum(packetBytes)
attr source packetDropReasonIsInterfaceDown(packetDropped)
attr title "packet drops: interface down, sum(packetBytes)"
scalar wGptpPcapRecorder.host1.wlan[0] packetDropNoCarrier:count 0
attr interpolationmode none
attr recordingmode count
attr source packetDropReasonIsNoCarrier(packetDropped)
attr title "packet drops: no carrier, count"
scalar wGptpPcapRecorder.host1.wlan[0] packetDropNoCarrier:sum(packetBytes) 0
attr interpolationmode none
attr recordingmode sum(packetBytes)
attr source packetDropReasonIsNoCarrier(packetDropped)
attr title "packet drops: no carrier, sum(packetBytes)"
par wGptpPcapRecorder.host1.ipv4.transportIn.channel typename "\"ned.IdealChannel\""
par wGptpPcapRecorder.host1.ipv4.up.out[0].channel typename "\"ned.IdealChannel\""
par wGptpPcapRecorder.host1.ipv4.lp.out[2].channel typename "\"ned.IdealChannel\""
par wGptpPcapRecorder.host1.ipv4.ifIn.channel typename "\"ned.IdealChannel\""
par wGptpPcapRecorder.host1.ipv4.configurator typename "\"inet.networklayer.configurator.ipv4.Ipv4NodeConfigurator\""
par wGptpPcapRecorder.host1.ipv4.configurator interfaceTableModule "\"wGptpPcapRecorder.host1.interfaceTable\""
par wGptpPcapRecorder.host1.ipv4.configurator routingTableModule "\"wGptpPcapRecorder.host1.ipv4.routingTable\""
par wGptpPcapRecorder.host1.ipv4.configurator networkConfiguratorModule "\"configurator\""
par wGptpPcapRecorder.host1.ipv4.configurator configureRoutingTable true
par wGptpPcapRecorder.host1.ipv4.routingTable typename "\"inet.networklayer.ipv4.Ipv4RoutingTable\""
par wGptpPcapRecorder.host1.ipv4.routingTable interfaceTableModule "\"wGptpPcapRecorder.host1.interfaceTable\""
par wGptpPcapRecorder.host1.ipv4.routingTable routerId "\"auto\""
par wGptpPcapRecorder.host1.ipv4.routingTable netmaskRoutes "\"*\""
par wGptpPcapRecorder.host1.ipv4.routingTable forwarding false
par wGptpPcapRecorder.host1.ipv4.routingTable multicastForwarding false
par wGptpPcapRecorder.host1.ipv4.routingTable useAdminDist false
par wGptpPcapRecorder.host1.ipv4.routingTable routingFile "\"\""
par wGptpPcapRecorder.host1.ipv4.natTable typename "\"inet.networklayer.ipv4.Ipv4NatTable\""
par wGptpPcapRecorder.host1.ipv4.natTable networkProtocolModule "\"^.ip\""
par wGptpPcapRecorder.host1.ipv4.natTable config "<config/> at content:1"
par wGptpPcapRecorder.host1.ipv4.up typename "\"inet.common.MessageDispatcher\""
par wGptpPcapRecorder.host1.ipv4.up displayStringTextFormat "\"processed %p pk (%l)\""
par wGptpPcapRecorder.host1.ipv4.up forwardServiceRegistration true
par wGptpPcapRecorder.host1.ipv4.up forwardProtocolRegistration true
par wGptpPcapRecorder.host1.ipv4.igmp typename "\"inet.networklayer.ipv4.Igmpv2\""
par wGptpPcapRecorder.host1.ipv4.igmp interfaceTableModule "\"wGptpPcapRecorder.host1.interfaceTable\""
par wGptpPcapRecorder.host1.ipv4.igmp routingTableModule "\"wGptpPcapRecorder.host1.ipv4.routingTable\""
par wGptpPcapRecorder.host1.ipv4.igmp crcMode "\"computed\""
attr enum declared,computed
par wGptpPcapRecorder.host1.ipv4.igmp enabled true
par wGptpPcapRecorder.host1.ipv4.igmp robustnessVariable 2
par wGptpPcapRecorder.host1.ipv4.igmp queryInterval 125s
attr unit s
par wGptpPcapRecorder.host1.ipv4.igmp queryResponseInterval 10s
attr unit s
par wGptpPcapRecorder.host1.ipv4.igmp groupMembershipInterval 260s
attr unit s
par wGptpPcapRecorder.host1.ipv4.igmp otherQuerierPresentInterval 255s
attr unit s
par wGptpPcapRecorder.host1.ipv4.igmp startupQueryInterval 31.25s
attr unit s
par wGptpPcapRecorder.host1.ipv4.igmp startupQueryCount 2
par wGptpPcapRecorder.host1.ipv4.igmp lastMemberQueryInterval 1s
attr unit s
par wGptpPcapRecorder.host1.ipv4.igmp lastMemberQueryCount 2
par wGptpPcapRecorder.host1.ipv4.igmp unsolicitedReportInterval 10s
attr unit s
par wGptpPcapRecorder.host1.ipv4.icmp typename "\"inet.networklayer.ipv4.Icmp\""
par wGptpPcapRecorder.host1.ipv4.icmp interfaceTableModule "\"wGptpPcapRecorder.host1.interfaceTable\""
par wGptpPcapRecorder.host1.ipv4.icmp routingTableModule "\"wGptpPcapRecorder.host1.ipv4.routingTable\""
par wGptpPcapRecorder.host1.ipv4.icmp crcMode "\"computed\""
attr enum declared,computed
attr mutable ""
par wGptpPcapRecorder.host1.ipv4.icmp quoteLength 8B
attr mutable ""
attr unit B
par wGptpPcapRecorder.host1.ipv4.mp typename "\"inet.common.MessageDispatcher\""
par wGptpPcapRecorder.host1.ipv4.mp displayStringTextFormat "\"processed %p pk (%l)\""
par wGptpPcapRecorder.host1.ipv4.mp forwardServiceRegistration true
par wGptpPcapRecorder.host1.ipv4.mp forwardProtocolRegistration true
par wGptpPcapRecorder.host1.ipv4.ip typename "\"inet.networklayer.ipv4.Ipv4\""
par wGptpPcapRecorder.host1.ipv4.ip interfaceTableModule "\"wGptpPcapRecorder.host1.interfaceTable\""
par wGptpPcapRecorder.host1.ipv4.ip routingTableModule "\"wGptpPcapRecorder.host1.ipv4.routingTable\""
par wGptpPcapRecorder.host1.ipv4.ip arpModule "\"wGptpPcapRecorder.host1.ipv4.arp\""
par wGptpPcapRecorder.host1.ipv4.ip icmpModule "\"wGptpPcapRecorder.host1.ipv4.icmp\""
par wGptpPcapRecorder.host1.ipv4.ip crcMode "\"computed\""
attr enum declared,computed
par wGptpPcapRecorder.host1.ipv4.ip timeToLive 32
par wGptpPcapRecorder.host1.ipv4.ip multicastTimeToLive 32
par wGptpPcapRecorder.host1.ipv4.ip fragmentTimeout 60s
attr unit s
par wGptpPcapRecorder.host1.ipv4.ip limitedBroadcast false
par wGptpPcapRecorder.host1.ipv4.ip directBroadcastInterfaces "\"\""
scalar wGptpPcapRecorder.host1.ipv4.ip packetDropAddressResolutionFailed:count 0
attr interpolationmode none
attr recordingmode count
attr source packetDropReasonIsAddressResolutionFailed(packetDropped)
attr title "packet drop: address resolution failed, count"
scalar wGptpPcapRecorder.host1.ipv4.ip packetDropAddressResolutionFailed:sum(packetBytes) 0
attr interpolationmode none
attr recordingmode sum(packetBytes)
attr source packetDropReasonIsAddressResolutionFailed(packetDropped)
attr title "packet drop: address resolution failed, sum(packetBytes)"
scalar wGptpPcapRecorder.host1.ipv4.ip packetDropHopLimitReached:count 0
attr interpolationmode none
attr recordingmode count
attr source packetDropReasonIsHopLimitReached(packetDropped)
attr title "packet drop: hop limit reached, count"
scalar wGptpPcapRecorder.host1.ipv4.ip packetDropHopLimitReached:sum(packetBytes) 0
attr interpolationmode none
attr recordingmode sum(packetBytes)
attr source packetDropReasonIsHopLimitReached(packetDropped)
attr title "packet drop: hop limit reached, sum(packetBytes)"
scalar wGptpPcapRecorder.host1.ipv4.ip packetDropForwardingDisabled:count 0
attr interpolationmode none
attr recordingmode count
attr source packetDropReasonIsForwardingDisabled(packetDropped)
attr title "packet drop: forwarding disabled, count"
scalar wGptpPcapRecorder.host1.ipv4.ip packetDropForwardingDisabled:sum(packetBytes) 0
attr interpolationmode none
attr recordingmode sum(packetBytes)
attr source packetDropReasonIsForwardingDisabled(packetDropped)
attr title "packet drop: forwarding disabled, sum(packetBytes)"
scalar wGptpPcapRecorder.host1.ipv4.ip packetDropNoInterfaceFound:count 0
attr interpolationmode none
attr recordingmode count
attr source packetDropReasonIsNoInterfaceFound(packetDropped)
attr title "packet drop: no interface found, count"
scalar wGptpPcapRecorder.host1.ipv4.ip packetDropNoInterfaceFound:sum(packetBytes) 0
attr interpolationmode none
attr recordingmode sum(packetBytes)
attr source packetDropReasonIsNoInterfaceFound(packetDropped)
attr title "packet drop: no interface found, sum(packetBytes)"
scalar wGptpPcapRecorder.host1.ipv4.ip packetDropNoRouteFound:count 0
attr interpolationmode none
attr recordingmode count
attr source packetDropReasonIsNoRouteFound(packetDropped)
attr title "packet drop: no route found, count"
scalar wGptpPcapRecorder.host1.ipv4.ip packetDropNoRouteFound:sum(packetBytes) 0
attr interpolationmode none
attr recordingmode sum(packetBytes)
attr source packetDropReasonIsNoRouteFound(packetDropped)
attr title "packet drop: no route found, sum(packetBytes)"
scalar wGptpPcapRecorder.host1.ipv4.ip packetDropUndefined:count 0
attr interpolationmode none
attr recordingmode count
attr source packetDropReasonIsUndefined(packetDropped)
attr title "packet drop: undefined, count"
scalar wGptpPcapRecorder.host1.ipv4.ip packetDropUndefined:sum(packetBytes) 0
attr interpolationmode none
attr recordingmode sum(packetBytes)
attr source packetDropReasonIsUndefined(packetDropped)
attr title "packet drop: undefined, sum(packetBytes)"
par wGptpPcapRecorder.host1.ipv4.arp typename "\"inet.networklayer.arp.ipv4.Arp\""
par wGptpPcapRecorder.host1.ipv4.arp interfaceTableModule "\"wGptpPcapRecorder.host1.interfaceTable\""
par wGptpPcapRecorder.host1.ipv4.arp routingTableModule "\"wGptpPcapRecorder.host1.ipv4.routingTable\""
par wGptpPcapRecorder.host1.ipv4.arp retryTimeout 1s
attr unit s
par wGptpPcapRecorder.host1.ipv4.arp retryCount 3
par wGptpPcapRecorder.host1.ipv4.arp cacheTimeout 120s
attr unit s
par wGptpPcapRecorder.host1.ipv4.arp proxyArpInterfaces "\"\""
scalar wGptpPcapRecorder.host1.ipv4.arp arpResolutionFailed:count 0
attr recordingmode count
attr title "ARP failed resolutions, count"
scalar wGptpPcapRecorder.host1.ipv4.arp arpResolutionCompleted:count 0
attr recordingmode count
attr title "ARP completed resolutions, count"
scalar wGptpPcapRecorder.host1.ipv4.arp arpResolutionInitiated:count 0
attr recordingmode count
attr title "ARP initiated resolutions, count"
scalar wGptpPcapRecorder.host1.ipv4.arp arpReplySent:count 0
attr recordingmode count
attr source arpReplySent
attr title "ARP replies sent, count"
scalar wGptpPcapRecorder.host1.ipv4.arp arpReplySent:sum(packetBytes) 0
attr recordingmode sum(packetBytes)
attr source arpReplySent
attr title "ARP replies sent, sum(packetBytes)"
scalar wGptpPcapRecorder.host1.ipv4.arp arpRequestSent:count 0
attr recordingmode count
attr source arpRequestSent
attr title "ARP request sent, count"
scalar wGptpPcapRecorder.host1.ipv4.arp arpRequestSent:sum(packetBytes) 0
attr recordingmode sum(packetBytes)
attr source arpRequestSent
attr title "ARP request sent, sum(packetBytes)"
par wGptpPcapRecorder.host1.ipv4.lp typename "\"inet.common.MessageDispatcher\""
par wGptpPcapRecorder.host1.ipv4.lp displayStringTextFormat "\"processed %p pk (%l)\""
par wGptpPcapRecorder.host1.ipv4.lp forwardServiceRegistration true
par wGptpPcapRecorder.host1.ipv4.lp forwardProtocolRegistration true
par wGptpPcapRecorder.host1.ipv4 typename "\"inet.networklayer.ipv4.Ipv4NetworkLayer\""
par wGptpPcapRecorder.host1.ipv4 forwarding false
par wGptpPcapRecorder.host1.ipv4 multicastForwarding false
par wGptpPcapRecorder.host1.ipv4 interfaceTableModule "\"wGptpPcapRecorder.host1.interfaceTable\""
par wGptpPcapRecorder.host1.ipv4 displayStringTextFormat "\"%i\""
par wGptpPcapRecorder.host1.nl typename "\"inet.common.MessageDispatcher\""
par wGptpPcapRecorder.host1.nl displayStringTextFormat "\"processed %p pk (%l)\""
par wGptpPcapRecorder.host1.nl forwardServiceRegistration true
par wGptpPcapRecorder.host1.nl forwardProtocolRegistration true
par wGptpPcapRecorder.host1.udp.crcInsertion typename "\"inet.transportlayer.udp.UdpCrcInsertionHook\""
par wGptpPcapRecorder.host1.udp typename "\"inet.transportlayer.udp.Udp\""
par wGptpPcapRecorder.host1.udp interfaceTableModule "\"wGptpPcapRecorder.host1.interfaceTable\""
par wGptpPcapRecorder.host1.udp icmpModule "\"^.ipv4.icmp\""
par wGptpPcapRecorder.host1.udp icmpv6Module "\"^.ipv6.icmpv6\""
par wGptpPcapRecorder.host1.udp crcMode "\"computed\""
attr enum disabled,declared,computed
par wGptpPcapRecorder.host1.udp defaultMulticastLoop true
scalar wGptpPcapRecorder.host1.udp packetReceived:count 0
attr interpolationmode none
attr recordingmode count
attr source packetReceived
attr title "packets received, count"
scalar wGptpPcapRecorder.host1.udp packetReceived:sum(packetBytes) 0
attr interpolationmode none
attr recordingmode sum(packetBytes)
attr source packetReceived
attr title "packets received, sum(packetBytes)"
scalar wGptpPcapRecorder.host1.udp packetSent:count 0
attr interpolationmode none
attr recordingmode count
attr source packetSent
attr title "packets sent, count"
scalar wGptpPcapRecorder.host1.udp packetSent:sum(packetBytes) 0
attr interpolationmode none
attr recordingmode sum(packetBytes)
attr source packetSent
attr title "packets sent, sum(packetBytes)"
scalar wGptpPcapRecorder.host1.udp passedUpPk:count 0
attr interpolationmode none
attr recordingmode count
attr source packetSentToUpper
attr title "packets passed up, count"
scalar wGptpPcapRecorder.host1.udp droppedPkWrongPort:count 0
attr interpolationmode none
attr recordingmode count
attr source packetDropReasonIsNoPortFound(packetDropped)
attr title "packets dropped (wrong port), count"
scalar wGptpPcapRecorder.host1.udp droppedPkBadChecksum:count 0
attr interpolationmode none
attr recordingmode count
attr source packetDropReasonIsIncorrectlyReceived(packetDropped)
attr title "packets dropped (checksum error), count"
par wGptpPcapRecorder.host1.tcp.crcInsertion typename "\"inet.transportlayer.tcp_common.TcpCrcInsertionHook\""
par wGptpPcapRecorder.host1.tcp typename "\"inet.transportlayer.tcp.Tcp\""
par wGptpPcapRecorder.host1.tcp crcMode "\"computed\""
attr enum declared,computed
par wGptpPcapRecorder.host1.tcp advertisedWindow 7504
par wGptpPcapRecorder.host1.tcp delayedAcksEnabled false
par wGptpPcapRecorder.host1.tcp nagleEnabled true
par wGptpPcapRecorder.host1.tcp limitedTransmitEnabled false
par wGptpPcapRecorder.host1.tcp increasedIWEnabled false
par wGptpPcapRecorder.host1.tcp sackSupport false
par wGptpPcapRecorder.host1.tcp windowScalingSupport false
par wGptpPcapRecorder.host1.tcp windowScalingFactor -1
par wGptpPcapRecorder.host1.tcp timestampSupport false
par wGptpPcapRecorder.host1.tcp mss 536
par wGptpPcapRecorder.host1.tcp msl 120s
attr unit s
par wGptpPcapRecorder.host1.tcp tcpAlgorithmClass "\"TcpReno\""
attr enum TcpVegas,TcpWestwood,TcpNewReno,TcpReno,TcpTahoe,TcpNoCongestionControl
par wGptpPcapRecorder.host1.tcp useDataNotification false
par wGptpPcapRecorder.host1.tcp dupthresh 3
par wGptpPcapRecorder.host1.tcp initialSsthresh 4294967295
par wGptpPcapRecorder.host1.tcp stopOperationExtraTime 0s
attr unit s
par wGptpPcapRecorder.host1.tcp stopOperationTimeout 2s
attr unit s
par wGptpPcapRecorder.host1.tcp ecnWillingness false
par wGptpPcapRecorder.host1.tcp dctcpGamma 0.0625
par wGptpPcapRecorder.host1.tn typename "\"inet.common.MessageDispatcher\""
par wGptpPcapRecorder.host1.tn displayStringTextFormat "\"processed %p pk (%l)\""
par wGptpPcapRecorder.host1.tn forwardServiceRegistration true
par wGptpPcapRecorder.host1.tn forwardProtocolRegistration true
par wGptpPcapRecorder.host1.at typename "\"inet.common.MessageDispatcher\""
par wGptpPcapRecorder.host1.at displayStringTextFormat "\"processed %p pk (%l)\""
par wGptpPcapRecorder.host1.at forwardServiceRegistration true
par wGptpPcapRecorder.host1.at forwardProtocolRegistration true
par wGptpPcapRecorder.host1.gptp typename "\"wirelessgptp.wGptp\""
par wGptpPcapRecorder.host1.gptp clockModule "\"wGptpPcapRecorder.host1.clock\""
par wGptpPcapRecorder.host1.gptp interfaceTableModule "\"wGptpPcapRecorder.host1.interfaceTable\""
par wGptpPcapRecorder.host1.gptp gptpNodeType "\"MASTER_NODE\""
par wGptpPcapRecorder.host1.gptp domainNumber 0
par wGptpPcapRecorder.host1.gptp slavePort "\"\""
par wGptpPcapRecorder.host1.gptp masterPorts "[\"wlan0\"]"
par wGptpPcapRecorder.host1.gptp correctionField 0s
attr unit s
par wGptpPcapRecorder.host1.gptp syncInterval 0.125s
attr unit s
par wGptpPcapRecorder.host1.gptp pdelayInterval 1s
attr unit s
par wGptpPcapRecorder.host1.gptp syncInitialOffset 0.125s
attr unit s
par wGptpPcapRecorder.host1.gptp pdelayInitialOffset 0s
attr unit s
par wGptpPcapRecorder.host1.gptp pDelayReqProcessingTime 8e-06s
attr unit s
par wGptpPcapRecorder.host1.gptp followUpInterval 7e-06s
attr unit s
par wGptpPcapRecorder.host1 typename "\"wirelessgptp.wGptpMaster\""
par wGptpPcapRecorder.host1 hasStatus false
par wGptpPcapRecorder.host1 osgModel "\"\""
par wGptpPcapRecorder.host1 osgModelColor "\"\""
par wGptpPcapRecorder.host1 canvasImage "\"\""
par wGptpPcapRecorder.host1 canvasImageColor "\"\""
par wGptpPcapRecorder.host1 recordPcap false
par wGptpPcapRecorder.host1 numPcapRecorders 1
par wGptpPcapRecorder.host1 numLoInterfaces 1
par wGptpPcapRecorder.host1 numWlanInterfaces 1
par wGptpPcapRecorder.host1 numEthInterfaces 0
par wGptpPcapRecorder.host1 numPppInterfaces 0
par wGptpPcapRecorder.host1 numTunInterfaces 0
par wGptpPcapRecorder.host1 numVirtInterfaces 0
par wGptpPcapRecorder.host1 fcsMode "\"computed\""
attr enum declared,computed
par wGptpPcapRecorder.host1 hasIpv4 true
par wGptpPcapRecorder.host1 hasIpv6 false
par wGptpPcapRecorder.host1 hasGn false
par wGptpPcapRecorder.host1 forwarding false
par wGptpPcapRecorder.host1 multicastForwarding false
par wGptpPcapRecorder.host1 hasUdp true
par wGptpPcapRecorder.host1 hasTcp true
par wGptpPcapRecorder.host1 hasSctp false
par wGptpPcapRecorder.host1 numApps 0
par wGptpPcapRecorder.host2.radioIn[0].channel typename "\"ned.IdealChannel\""
par wGptpPcapRecorder.host2.clock.oscillator typename "\"inet.clock.oscillator.ConstantDriftOscillator\""
par wGptpPcapRecorder.host2.clock.oscillator displayStringTextFormat "\"%c (%n + %d)\""
par wGptpPcapRecorder.host2.clock.oscillator nominalTickLength 0s
attr unit s
par wGptpPcapRecorder.host2.clock.oscillator tickOffset 0s
attr unit s
par wGptpPcapRecorder.host2.clock.oscillator driftRate 8.97664ppm
attr unit ppm
par wGptpPcapRecorder.host2.clock typename "\"inet.clock.model.SettableClock\""
par wGptpPcapRecorder.host2.clock displayStringTextFormat "\"%t (%c)\""
par wGptpPcapRecorder.host2.clock referenceClock "\"host1.clock\""
par wGptpPcapRecorder.host2.clock emitClockTimeInterval 0s
attr unit s
par wGptpPcapRecorder.host2.clock initialClockTime 0s
attr unit s
par wGptpPcapRecorder.host2.clock roundingMode "\"up\""
attr enum down,up,closer,none
par wGptpPcapRecorder.host2.clock defaultOverdueClockEventHandlingMode "\"error\""
attr enum execute,skip,error
par wGptpPcapRecorder.host2.mobility typename "\"inet.mobility.static.StationaryMobility\""
par wGptpPcapRecorder.host2.mobility subjectModule "\"^\""
par wGptpPcapRecorder.host2.mobility coordinateSystemModule "\"\""
par wGptpPcapRecorder.host2.mobility displayStringTextFormat "\"p: %p\\nv: %v\""
attr mutable ""
par wGptpPcapRecorder.host2.mobility updateDisplayString true
par wGptpPcapRecorder.host2.mobility constraintAreaMinX "-inf m"
attr unit m
par wGptpPcapRecorder.host2.mobility constraintAreaMinY "-inf m"
attr unit m
par wGptpPcapRecorder.host2.mobility constraintAreaMinZ "-inf m"
attr unit m
par wGptpPcapRecorder.host2.mobility constraintAreaMaxX "inf m"
attr unit m
par wGptpPcapRecorder.host2.mobility constraintAreaMaxY "inf m"
attr unit m
par wGptpPcapRecorder.host2.mobility constraintAreaMaxZ "inf m"
attr unit m
par wGptpPcapRecorder.host2.mobility initialX "nan m"
attr unit m
par wGptpPcapRecorder.host2.mobility initialY "nan m"
attr unit m
par wGptpPcapRecorder.host2.mobility initialZ 0m
attr unit m
par wGptpPcapRecorder.host2.mobility initialLatitude "nan deg"
attr unit deg
par wGptpPcapRecorder.host2.mobility initialLongitude "nan deg"
attr unit deg
par wGptpPcapRecorder.host2.mobility initialAltitude 0m
attr unit m
par wGptpPcapRecorder.host2.mobility initialHeading 0deg
attr unit deg
par wGptpPcapRecorder.host2.mobility initialElevation 0deg
attr unit deg
par wGptpPcapRecorder.host2.mobility initialBank 0deg
attr unit deg
par wGptpPcapRecorder.host2.mobility initFromDisplayString true
par wGptpPcapRecorder.host2.mobility updateFromDisplayString true
par wGptpPcapRecorder.host2.pcapRecorder[0] typename "\"inet.common.packet.recorder.PcapRecorder\""
par wGptpPcapRecorder.host2.pcapRecorder[0] verbose true
par wGptpPcapRecorder.host2.pcapRecorder[0] pcapFile "\"results/General-wGptpPcapRecorder.host2.pcap\""
par wGptpPcapRecorder.host2.pcapRecorder[0] fileFormat "\"pcapng\""
attr enum pcap,pcapng
par wGptpPcapRecorder.host2.pcapRecorder[0] snaplen 65535
par wGptpPcapRecorder.host2.pcapRecorder[0] dumpBadFrames true
par wGptpPcapRecorder.host2.pcapRecorder[0] moduleNamePatterns "\"wlan[*] eth[*] ppp[*]\""
par wGptpPcapRecorder.host2.pcapRecorder[0] sendingSignalNames "\"packetSentToLower\""
par wGptpPcapRecorder.host2.pcapRecorder[0] receivingSignalNames "\"packetReceivedFromLower\""
par wGptpPcapRecorder.host2.pcapRecorder[0] dumpProtocols "\"ethernetmac ppp ieee80211mac\""
par wGptpPcapRecorder.host2.pcapRecorder[0] packetFilter "(omnetpp::cValueHolder)holder: \"*\""
par wGptpPcapRecorder.host2.pcapRecorder[0] helpers "\"\""
par wGptpPcapRecorder.host2.pcapRecorder[0] alwaysFlush true
par wGptpPcapRecorder.host2.pcapRecorder[0] displayStringTextFormat "\"rec: %n pks\""
par wGptpPcapRecorder.host2.interfaceTable typename "\"inet.networklayer.common.InterfaceTable\""
par wGptpPcapRecorder.host2.interfaceTable displayAddresses false
par wGptpPcapRecorder.host2.cb typename "\"inet.common.MessageDispatcher\""
par wGptpPcapRecorder.host2.cb displayStringTextFormat "\"processed %p pk (%l)\""
par wGptpPcapRecorder.host2.cb forwardServiceRegistration true
par wGptpPcapRecorder.host2.cb forwardProtocolRegistration true
[...]
par wGptpPcapRecorder.visualizer.physicalLinkVisualizer tags "\"\""
par wGptpPcapRecorder.visualizer.physicalLinkVisualizer displayLinks false
par wGptpPcapRecorder.visualizer.physicalLinkVisualizer activityLevel "\"service\""
attr enum service,peer,protocol
par wGptpPcapRecorder.visualizer.physicalLinkVisualizer nodeFilter "\"*\""
attr mutable ""
par wGptpPcapRecorder.visualizer.physicalLinkVisualizer interfaceFilter "\"*\""
attr mutable ""
par wGptpPcapRecorder.visualizer.physicalLinkVisualizer packetFilter "(omnetpp::cValueHolder)holder: \"*\""
attr mutable ""
par wGptpPcapRecorder.visualizer.physicalLinkVisualizer lineColor "\"olive\""
par wGptpPcapRecorder.visualizer.physicalLinkVisualizer lineStyle "\"dotted\""
par wGptpPcapRecorder.visualizer.physicalLinkVisualizer lineWidth 3
par wGptpPcapRecorder.visualizer.physicalLinkVisualizer lineShift 16
par wGptpPcapRecorder.visualizer.physicalLinkVisualizer lineShiftMode "\"normal\""
par wGptpPcapRecorder.visualizer.physicalLinkVisualizer lineContactSpacing 3
par wGptpPcapRecorder.visualizer.physicalLinkVisualizer lineContactMode "\"rectangular\""
attr enum circular,rectangular
par wGptpPcapRecorder.visualizer.physicalLinkVisualizer labelFormat "\"%n\""
par wGptpPcapRecorder.visualizer.physicalLinkVisualizer labelFont "\"<default>, 8px\""
par wGptpPcapRecorder.visualizer.physicalLinkVisualizer labelColor "\"olive\""
par wGptpPcapRecorder.visualizer.physicalLinkVisualizer fadeOutMode "\"realTime\""
attr enum realTime,animationTime,simulationTime
par wGptpPcapRecorder.visualizer.physicalLinkVisualizer fadeOutTime 1s
attr unit s
par wGptpPcapRecorder.visualizer.physicalLinkVisualizer fadeOutAnimationSpeed 0
par wGptpPcapRecorder.visualizer.physicalLinkVisualizer holdAnimationTime 0s
attr unit s
par wGptpPcapRecorder.visualizer.physicalLinkVisualizer zIndex 1
par wGptpPcapRecorder.visualizer.interfaceTableVisualizer typename "\"inet.visualizer.canvas.linklayer.InterfaceTableCanvasVisualizer\""
par wGptpPcapRecorder.visualizer.interfaceTableVisualizer visualizationTargetModule "\"^.^\""
par wGptpPcapRecorder.visualizer.interfaceTableVisualizer visualizationSubjectModule "\"^.^\""
par wGptpPcapRecorder.visualizer.interfaceTableVisualizer tags "\"\""
par wGptpPcapRecorder.visualizer.interfaceTableVisualizer networkNodeVisualizerModule "\"^.networkNodeVisualizer\""
par wGptpPcapRecorder.visualizer.interfaceTableVisualizer displayInterfaceTables false
par wGptpPcapRecorder.visualizer.interfaceTableVisualizer displayWiredInterfacesAtConnections true
par wGptpPcapRecorder.visualizer.interfaceTableVisualizer displayBackground false
par wGptpPcapRecorder.visualizer.interfaceTableVisualizer nodeFilter "\"*\""
attr mutable ""
par wGptpPcapRecorder.visualizer.interfaceTableVisualizer interfaceFilter "\"not(lo*)\""
attr mutable ""
par wGptpPcapRecorder.visualizer.interfaceTableVisualizer format "\"%N %\\\\%a%/%l\""
attr mutable ""
par wGptpPcapRecorder.visualizer.interfaceTableVisualizer placementHint "\"top\""
par wGptpPcapRecorder.visualizer.interfaceTableVisualizer placementPriority 0
par wGptpPcapRecorder.visualizer.interfaceTableVisualizer font "\"<default>\""
par wGptpPcapRecorder.visualizer.interfaceTableVisualizer textColor "\"#005030\""
par wGptpPcapRecorder.visualizer.interfaceTableVisualizer backgroundColor "\"white\""
par wGptpPcapRecorder.visualizer.interfaceTableVisualizer opacity 1
par wGptpPcapRecorder.visualizer.interfaceTableVisualizer zIndex 10
par wGptpPcapRecorder.visualizer.dataLinkVisualizer typename "\"inet.visualizer.canvas.linklayer.DataLinkCanvasVisualizer\""
par wGptpPcapRecorder.visualizer.dataLinkVisualizer visualizationTargetModule "\"^.^\""
par wGptpPcapRecorder.visualizer.dataLinkVisualizer visualizationSubjectModule "\"^.^\""
par wGptpPcapRecorder.visualizer.dataLinkVisualizer tags "\"\""
par wGptpPcapRecorder.visualizer.dataLinkVisualizer displayLinks false
par wGptpPcapRecorder.visualizer.dataLinkVisualizer activityLevel "\"service\""
attr enum service,peer,protocol
par wGptpPcapRecorder.visualizer.dataLinkVisualizer nodeFilter "\"*\""
attr mutable ""
par wGptpPcapRecorder.visualizer.dataLinkVisualizer interfaceFilter "\"*\""
attr mutable ""
par wGptpPcapRecorder.visualizer.dataLinkVisualizer packetFilter "(omnetpp::cValueHolder)holder: \"*\""
attr mutable ""
par wGptpPcapRecorder.visualizer.dataLinkVisualizer lineColor "\"darkcyan\""
par wGptpPcapRecorder.visualizer.dataLinkVisualizer lineStyle "\"solid\""
par wGptpPcapRecorder.visualizer.dataLinkVisualizer lineWidth 3
par wGptpPcapRecorder.visualizer.dataLinkVisualizer lineShift 16
par wGptpPcapRecorder.visualizer.dataLinkVisualizer lineShiftMode "\"normal\""
par wGptpPcapRecorder.visualizer.dataLinkVisualizer lineContactSpacing 3
par wGptpPcapRecorder.visualizer.dataLinkVisualizer lineContactMode "\"rectangular\""
attr enum circular,rectangular
par wGptpPcapRecorder.visualizer.dataLinkVisualizer labelFormat "\"%n\""
par wGptpPcapRecorder.visualizer.dataLinkVisualizer labelFont "\"<default>, 8px\""
par wGptpPcapRecorder.visualizer.dataLinkVisualizer labelColor "\"darkcyan\""
par wGptpPcapRecorder.visualizer.dataLinkVisualizer fadeOutMode "\"realTime\""
attr enum realTime,animationTime,simulationTime
par wGptpPcapRecorder.visualizer.dataLinkVisualizer fadeOutTime 1s
attr unit s
par wGptpPcapRecorder.visualizer.dataLinkVisualizer fadeOutAnimationSpeed 0
par wGptpPcapRecorder.visualizer.dataLinkVisualizer holdAnimationTime 0s
attr unit s
par wGptpPcapRecorder.visualizer.dataLinkVisualizer zIndex 2
par wGptpPcapRecorder.visualizer.linkBreakVisualizer typename "\"inet.visualizer.canvas.linklayer.LinkBreakCanvasVisualizer\""
par wGptpPcapRecorder.visualizer.linkBreakVisualizer visualizationTargetModule "\"^.^\""
par wGptpPcapRecorder.visualizer.linkBreakVisualizer visualizationSubjectModule "\"^.^\""
par wGptpPcapRecorder.visualizer.linkBreakVisualizer tags "\"\""
par wGptpPcapRecorder.visualizer.linkBreakVisualizer displayLinkBreaks false
par wGptpPcapRecorder.visualizer.linkBreakVisualizer nodeFilter "\"*\""
attr mutable ""
par wGptpPcapRecorder.visualizer.linkBreakVisualizer interfaceFilter "\"*\""
attr mutable ""
par wGptpPcapRecorder.visualizer.linkBreakVisualizer packetFilter "(omnetpp::cValueHolder)holder: \"*\""
attr mutable ""
par wGptpPcapRecorder.visualizer.linkBreakVisualizer icon "\"status/stop\""
par wGptpPcapRecorder.visualizer.linkBreakVisualizer iconTintAmount 0
par wGptpPcapRecorder.visualizer.linkBreakVisualizer iconTintColor "\"\""
par wGptpPcapRecorder.visualizer.linkBreakVisualizer fadeOutMode "\"realTime\""
attr enum realTime,animationTime,simulationTime
par wGptpPcapRecorder.visualizer.linkBreakVisualizer fadeOutTime 1s
attr unit s
par wGptpPcapRecorder.visualizer.linkBreakVisualizer fadeOutAnimationSpeed 0
par wGptpPcapRecorder.visualizer.linkBreakVisualizer zIndex 2
par wGptpPcapRecorder.visualizer.ieee80211Visualizer typename "\"inet.visualizer.canvas.linklayer.Ieee80211CanvasVisualizer\""
par wGptpPcapRecorder.visualizer.ieee80211Visualizer visualizationTargetModule "\"^.^\""
par wGptpPcapRecorder.visualizer.ieee80211Visualizer visualizationSubjectModule "\"^.^\""
par wGptpPcapRecorder.visualizer.ieee80211Visualizer tags "\"\""
par wGptpPcapRecorder.visualizer.ieee80211Visualizer networkNodeVisualizerModule "\"^.networkNodeVisualizer\""
par wGptpPcapRecorder.visualizer.ieee80211Visualizer displayAssociations false
par wGptpPcapRecorder.visualizer.ieee80211Visualizer nodeFilter "\"*\""
attr mutable ""
par wGptpPcapRecorder.visualizer.ieee80211Visualizer interfaceFilter "\"*\""
attr mutable ""
par wGptpPcapRecorder.visualizer.ieee80211Visualizer minPower -85dBm
attr unit dBm
par wGptpPcapRecorder.visualizer.ieee80211Visualizer maxPower -50dBm
attr unit dBm
par wGptpPcapRecorder.visualizer.ieee80211Visualizer icons "\"misc/signal_power_0 misc/signal_power_1 misc/signal_power_2 misc/signal_power_3\""
par wGptpPcapRecorder.visualizer.ieee80211Visualizer iconColor "\"dark\""
attr enum light,dark
par wGptpPcapRecorder.visualizer.ieee80211Visualizer labelFont "\"<default>\""
par wGptpPcapRecorder.visualizer.ieee80211Visualizer labelColor "\"black\""
par wGptpPcapRecorder.visualizer.ieee80211Visualizer placementHint "\"top\""
par wGptpPcapRecorder.visualizer.ieee80211Visualizer placementPriority 0
par wGptpPcapRecorder.visualizer.ieee80211Visualizer zIndex 2
par wGptpPcapRecorder.visualizer.networkRouteVisualizer typename "\"inet.visualizer.canvas.networklayer.NetworkRouteCanvasVisualizer\""
par wGptpPcapRecorder.visualizer.networkRouteVisualizer visualizationTargetModule "\"^.^\""
par wGptpPcapRecorder.visualizer.networkRouteVisualizer visualizationSubjectModule "\"^.^\""
par wGptpPcapRecorder.visualizer.networkRouteVisualizer tags "\"\""
par wGptpPcapRecorder.visualizer.networkRouteVisualizer displayRoutes false
par wGptpPcapRecorder.visualizer.networkRouteVisualizer startPathSignal "\"packetReceivedFromUpper\""
par wGptpPcapRecorder.visualizer.networkRouteVisualizer extendPathSignal "\"packetReceivedFromLower\""
par wGptpPcapRecorder.visualizer.networkRouteVisualizer endPathSignal "\"packetSentToUpper\""
par wGptpPcapRecorder.visualizer.networkRouteVisualizer nodeFilter "\"*\""
attr mutable ""
par wGptpPcapRecorder.visualizer.networkRouteVisualizer packetFilter "(omnetpp::cValueHolder)holder: \"*\""
attr mutable ""
par wGptpPcapRecorder.visualizer.networkRouteVisualizer lineColor "\"dark\""
attr enum light,dark
par wGptpPcapRecorder.visualizer.networkRouteVisualizer lineStyle "\"solid\""
par wGptpPcapRecorder.visualizer.networkRouteVisualizer lineWidth 3
par wGptpPcapRecorder.visualizer.networkRouteVisualizer lineSmooth false
par wGptpPcapRecorder.visualizer.networkRouteVisualizer lineShift 16
par wGptpPcapRecorder.visualizer.networkRouteVisualizer lineShiftMode "\"normal\""
par wGptpPcapRecorder.visualizer.networkRouteVisualizer lineContactSpacing 3
par wGptpPcapRecorder.visualizer.networkRouteVisualizer lineContactMode "\"rectangular\""
attr enum circular,rectangular
par wGptpPcapRecorder.visualizer.networkRouteVisualizer labelFormat "\"%n\""
par wGptpPcapRecorder.visualizer.networkRouteVisualizer labelFont "\"<default>, 8px\""
par wGptpPcapRecorder.visualizer.networkRouteVisualizer labelColor "\"\""
par wGptpPcapRecorder.visualizer.networkRouteVisualizer fadeOutMode "\"realTime\""
attr enum realTime,animationTime,simulationTime
par wGptpPcapRecorder.visualizer.networkRouteVisualizer fadeOutTime 1s
attr unit s
par wGptpPcapRecorder.visualizer.networkRouteVisualizer fadeOutAnimationSpeed 0
par wGptpPcapRecorder.visualizer.networkRouteVisualizer zIndex 3
par wGptpPcapRecorder.visualizer.routingTableVisualizer typename "\"inet.visualizer.canvas.networklayer.RoutingTableCanvasVisualizer\""
par wGptpPcapRecorder.visualizer.routingTableVisualizer visualizationTargetModule "\"^.^\""
par wGptpPcapRecorder.visualizer.routingTableVisualizer visualizationSubjectModule "\"^.^\""
par wGptpPcapRecorder.visualizer.routingTableVisualizer tags "\"\""
par wGptpPcapRecorder.visualizer.routingTableVisualizer displayRoutingTables false
par wGptpPcapRecorder.visualizer.routingTableVisualizer displayRoutesIndividually true
par wGptpPcapRecorder.visualizer.routingTableVisualizer displayLabels true
par wGptpPcapRecorder.visualizer.routingTableVisualizer destinationFilter "\"*\""
attr mutable ""
par wGptpPcapRecorder.visualizer.routingTableVisualizer nodeFilter "\"*\""
attr mutable ""
par wGptpPcapRecorder.visualizer.routingTableVisualizer lineColor "\"black\""
par wGptpPcapRecorder.visualizer.routingTableVisualizer lineStyle "\"solid\""
par wGptpPcapRecorder.visualizer.routingTableVisualizer lineWidth 2
par wGptpPcapRecorder.visualizer.routingTableVisualizer lineShift 16
par wGptpPcapRecorder.visualizer.routingTableVisualizer lineShiftMode "\"normal\""
par wGptpPcapRecorder.visualizer.routingTableVisualizer lineContactSpacing 3
par wGptpPcapRecorder.visualizer.routingTableVisualizer lineContactMode "\"rectangular\""
attr enum circular,rectangular
par wGptpPcapRecorder.visualizer.routingTableVisualizer labelFormat "\"%d/%m -> %g (%n)\""
attr mutable ""
par wGptpPcapRecorder.visualizer.routingTableVisualizer labelFont "\"<default>, 8px\""
par wGptpPcapRecorder.visualizer.routingTableVisualizer labelColor "\"black\""
par wGptpPcapRecorder.visualizer.routingTableVisualizer zIndex 0
par wGptpPcapRecorder.visualizer.transportRouteVisualizer typename "\"inet.visualizer.canvas.transportlayer.TransportRouteCanvasVisualizer\""
par wGptpPcapRecorder.visualizer.transportRouteVisualizer visualizationTargetModule "\"^.^\""
par wGptpPcapRecorder.visualizer.transportRouteVisualizer visualizationSubjectModule "\"^.^\""
par wGptpPcapRecorder.visualizer.transportRouteVisualizer tags "\"\""
par wGptpPcapRecorder.visualizer.transportRouteVisualizer displayRoutes false
par wGptpPcapRecorder.visualizer.transportRouteVisualizer startPathSignal "\"packetReceivedFromUpper\""
par wGptpPcapRecorder.visualizer.transportRouteVisualizer extendPathSignal "\"packetReceivedFromLower\""
par wGptpPcapRecorder.visualizer.transportRouteVisualizer endPathSignal "\"packetSentToUpper\""
par wGptpPcapRecorder.visualizer.transportRouteVisualizer nodeFilter "\"*\""
attr mutable ""
par wGptpPcapRecorder.visualizer.transportRouteVisualizer packetFilter "(omnetpp::cValueHolder)holder: \"*\""
attr mutable ""
par wGptpPcapRecorder.visualizer.transportRouteVisualizer lineColor "\"dark\""
attr enum light,dark
par wGptpPcapRecorder.visualizer.transportRouteVisualizer lineStyle "\"solid\""
par wGptpPcapRecorder.visualizer.transportRouteVisualizer lineWidth 3
par wGptpPcapRecorder.visualizer.transportRouteVisualizer lineSmooth false
par wGptpPcapRecorder.visualizer.transportRouteVisualizer lineShift 16
par wGptpPcapRecorder.visualizer.transportRouteVisualizer lineShiftMode "\"normal\""
par wGptpPcapRecorder.visualizer.transportRouteVisualizer lineContactSpacing 3
par wGptpPcapRecorder.visualizer.transportRouteVisualizer lineContactMode "\"rectangular\""
attr enum circular,rectangular
par wGptpPcapRecorder.visualizer.transportRouteVisualizer labelFormat "\"%n\""
par wGptpPcapRecorder.visualizer.transportRouteVisualizer labelFont "\"<default>, 8px\""
par wGptpPcapRecorder.visualizer.transportRouteVisualizer labelColor "\"\""
par wGptpPcapRecorder.visualizer.transportRouteVisualizer fadeOutMode "\"realTime\""
attr enum realTime,animationTime,simulationTime
par wGptpPcapRecorder.visualizer.transportRouteVisualizer fadeOutTime 1s
attr unit s
par wGptpPcapRecorder.visualizer.transportRouteVisualizer fadeOutAnimationSpeed 0
par wGptpPcapRecorder.visualizer.transportRouteVisualizer zIndex 4
par wGptpPcapRecorder.visualizer.transportConnectionVisualizer typename "\"inet.visualizer.canvas.transportlayer.TransportConnectionCanvasVisualizer\""
par wGptpPcapRecorder.visualizer.transportConnectionVisualizer visualizationTargetModule "\"^.^\""
par wGptpPcapRecorder.visualizer.transportConnectionVisualizer visualizationSubjectModule "\"^.^\""
par wGptpPcapRecorder.visualizer.transportConnectionVisualizer tags "\"\""
par wGptpPcapRecorder.visualizer.transportConnectionVisualizer networkNodeVisualizerModule "\"^.networkNodeVisualizer\""
par wGptpPcapRecorder.visualizer.transportConnectionVisualizer displayTransportConnections false
par wGptpPcapRecorder.visualizer.transportConnectionVisualizer sourceNodeFilter "\"*\""
attr mutable ""
par wGptpPcapRecorder.visualizer.transportConnectionVisualizer sourcePortFilter "\"*\""
attr mutable ""
par wGptpPcapRecorder.visualizer.transportConnectionVisualizer destinationNodeFilter "\"*\""
attr mutable ""
par wGptpPcapRecorder.visualizer.transportConnectionVisualizer destinationPortFilter "\"*\""
attr mutable ""
par wGptpPcapRecorder.visualizer.transportConnectionVisualizer icon "\"misc/marker_s\""
par wGptpPcapRecorder.visualizer.transportConnectionVisualizer iconColor "\"dark\""
attr enum light,dark
par wGptpPcapRecorder.visualizer.transportConnectionVisualizer labelFont "\"<default>\""
par wGptpPcapRecorder.visualizer.transportConnectionVisualizer labelColor "\"black\""
par wGptpPcapRecorder.visualizer.transportConnectionVisualizer placementHint "\"top\""
par wGptpPcapRecorder.visualizer.transportConnectionVisualizer placementPriority 0
par wGptpPcapRecorder.visualizer.transportConnectionVisualizer zIndex 4
par wGptpPcapRecorder.visualizer.failureProtectionConfigurationVisualizer typename "\"inet.visualizer.canvas.configurator.FailureProtectionConfigurationCanvasVisualizer\""
par wGptpPcapRecorder.visualizer.failureProtectionConfigurationVisualizer visualizationTargetModule "\"^.^\""
par wGptpPcapRecorder.visualizer.failureProtectionConfigurationVisualizer visualizationSubjectModule "\"^.^\""
par wGptpPcapRecorder.visualizer.failureProtectionConfigurationVisualizer tags "\"\""
par wGptpPcapRecorder.visualizer.failureProtectionConfigurationVisualizer displayTrees false
par wGptpPcapRecorder.visualizer.failureProtectionConfigurationVisualizer lineColor "\"dark\""
attr enum light,dark
par wGptpPcapRecorder.visualizer.failureProtectionConfigurationVisualizer lineStyle "\"solid\""
par wGptpPcapRecorder.visualizer.failureProtectionConfigurationVisualizer lineWidth 3
par wGptpPcapRecorder.visualizer.failureProtectionConfigurationVisualizer lineSmooth false
par wGptpPcapRecorder.visualizer.failureProtectionConfigurationVisualizer lineShift 16
par wGptpPcapRecorder.visualizer.failureProtectionConfigurationVisualizer lineShiftMode "\"normal\""
par wGptpPcapRecorder.visualizer.failureProtectionConfigurationVisualizer lineContactSpacing 3
par wGptpPcapRecorder.visualizer.failureProtectionConfigurationVisualizer lineContactMode "\"rectangular\""
attr enum circular,rectangular
par wGptpPcapRecorder.visualizer.failureProtectionConfigurationVisualizer failureProtectionConfiguratorModule "\"failureProtectionConfigurator\""
par wGptpPcapRecorder.visualizer.failureProtectionConfigurationVisualizer streamFilter "\"*\""
par wGptpPcapRecorder.visualizer.failureProtectionConfigurationVisualizer zIndex 3
par wGptpPcapRecorder.visualizer.streamRedundancyConfigurationVisualizer typename "\"inet.visualizer.canvas.configurator.StreamRedundancyConfigurationCanvasVisualizer\""
par wGptpPcapRecorder.visualizer.streamRedundancyConfigurationVisualizer visualizationTargetModule "\"^.^\""
par wGptpPcapRecorder.visualizer.streamRedundancyConfigurationVisualizer visualizationSubjectModule "\"^.^\""
par wGptpPcapRecorder.visualizer.streamRedundancyConfigurationVisualizer tags "\"\""
par wGptpPcapRecorder.visualizer.streamRedundancyConfigurationVisualizer displayTrees false
par wGptpPcapRecorder.visualizer.streamRedundancyConfigurationVisualizer lineColor "\"dark\""
attr enum light,dark
par wGptpPcapRecorder.visualizer.streamRedundancyConfigurationVisualizer lineStyle "\"solid\""
par wGptpPcapRecorder.visualizer.streamRedundancyConfigurationVisualizer lineWidth 3
par wGptpPcapRecorder.visualizer.streamRedundancyConfigurationVisualizer lineSmooth false
par wGptpPcapRecorder.visualizer.streamRedundancyConfigurationVisualizer lineShift 16
par wGptpPcapRecorder.visualizer.streamRedundancyConfigurationVisualizer lineShiftMode "\"normal\""
par wGptpPcapRecorder.visualizer.streamRedundancyConfigurationVisualizer lineContactSpacing 3
par wGptpPcapRecorder.visualizer.streamRedundancyConfigurationVisualizer lineContactMode "\"rectangular\""
attr enum circular,rectangular
par wGptpPcapRecorder.visualizer.streamRedundancyConfigurationVisualizer streamRedundancyConfiguratorModule "\"streamRedundancyConfigurator\""
par wGptpPcapRecorder.visualizer.streamRedundancyConfigurationVisualizer streamFilter "\"*\""
par wGptpPcapRecorder.visualizer.streamRedundancyConfigurationVisualizer zIndex 3
par wGptpPcapRecorder.visualizer typename "\"inet.visualizer.canvas.integrated.IntegratedCanvasVisualizer\""
par wGptpPcapRecorder typename "\"tcs_proj.simulations.wirelessgptp_pcaprecorder.wGptpPcapRecorder\""

